/*---------------------------------------------------------------------------*\
| =========                 |                                                 |
| \\      /  F ield         | OpenFOAM: The Open Source CFD Toolbox           |
|  \\    /   O peration     | Version:  v2012                                 |
|   \\  /    A nd           | Website:  www.openfoam.com                      |
|    \\/     M anipulation  |                                                 |
\*---------------------------------------------------------------------------*/
Build  : _7bdb509494-20201222 OPENFOAM=2012
Arch   : "LSB;label=32;scalar=64"
Exec   : icoFoam
Date   : May 05 2024
Time   : 18:46:22
Host   : DESKTOP-MFV15DV
PID    : 2968
I/O    : uncollated
Case   : /home/mohammad/OpenFOAM_files/cavity/flat_plate_ext_graded
nProcs : 1
trapFpe: Floating point exception trapping enabled (FOAM_SIGFPE).
fileModificationChecking : Monitoring run-time modified files using timeStampMaster (fileModificationSkew 5, maxFileModificationPolls 20)
allowSystemOperations : Allowing user-supplied system call operations

// * * * * * * * * * * * * * * * * * * * * * * * * * * * * * * * * * * * * * //
Create time

Create mesh for time = 0


PISO: Operating solver in PISO mode

Reading transportProperties

Reading field p

Reading field U

Reading/calculating face flux field phi


Starting time loop

Time = 0.00025

Courant Number mean: 0.05 max: 0.125624
smoothSolver:  Solving for Ux, Initial residual = 1, Final residual = 2.39491e-06, No Iterations 5
smoothSolver:  Solving for Uy, Initial residual = 0, Final residual = 0, No Iterations 0
DICPCG:  Solving for p, Initial residual = 1, Final residual = 0.0352448, No Iterations 33
time step continuity errors : sum local = 7.4686e-07, global = -2.09632e-19, cumulative = -2.09632e-19
DICPCG:  Solving for p, Initial residual = 0.177928, Final residual = 7.26912e-07, No Iterations 46
time step continuity errors : sum local = 4.34951e-11, global = -2.63494e-19, cumulative = -4.73126e-19
ExecutionTime = 0.02 s  ClockTime = 0 s

Time = 0.0005

Courant Number mean: 0.0501387 max: 0.12785
smoothSolver:  Solving for Ux, Initial residual = 0.311921, Final residual = 8.76468e-06, No Iterations 4
smoothSolver:  Solving for Uy, Initial residual = 0.411505, Final residual = 6.88741e-06, No Iterations 5
DICPCG:  Solving for p, Initial residual = 0.118827, Final residual = 0.00462503, No Iterations 31
time step continuity errors : sum local = 2.92403e-07, global = -5.39201e-19, cumulative = -1.01233e-18
DICPCG:  Solving for p, Initial residual = 0.0235887, Final residual = 6.60155e-07, No Iterations 44
time step continuity errors : sum local = 4.63797e-11, global = 1.90072e-19, cumulative = -8.22255e-19
ExecutionTime = 0.02 s  ClockTime = 0 s

Time = 0.00075

Courant Number mean: 0.0503672 max: 0.13008
smoothSolver:  Solving for Ux, Initial residual = 0.189928, Final residual = 5.52064e-06, No Iterations 4
smoothSolver:  Solving for Uy, Initial residual = 0.236838, Final residual = 3.67314e-06, No Iterations 5
DICPCG:  Solving for p, Initial residual = 0.0497163, Final residual = 0.00139683, No Iterations 33
time step continuity errors : sum local = 9.83071e-08, global = 3.18207e-19, cumulative = -5.04048e-19
DICPCG:  Solving for p, Initial residual = 0.0200673, Final residual = 5.87842e-07, No Iterations 44
time step continuity errors : sum local = 4.01856e-11, global = -1.03889e-18, cumulative = -1.54294e-18
ExecutionTime = 0.02 s  ClockTime = 0 s

Time = 0.001

Courant Number mean: 0.0505897 max: 0.132251
smoothSolver:  Solving for Ux, Initial residual = 0.128954, Final residual = 3.8239e-06, No Iterations 4
smoothSolver:  Solving for Uy, Initial residual = 0.152531, Final residual = 2.27686e-06, No Iterations 5
DICPCG:  Solving for p, Initial residual = 0.0339004, Final residual = 0.00120346, No Iterations 33
time step continuity errors : sum local = 8.34482e-08, global = -4.09072e-19, cumulative = -1.95201e-18
DICPCG:  Solving for p, Initial residual = 0.0125536, Final residual = 5.21631e-07, No Iterations 44
time step continuity errors : sum local = 3.53347e-11, global = 3.98978e-19, cumulative = -1.55303e-18
ExecutionTime = 0.02 s  ClockTime = 0 s

Time = 0.00125

Courant Number mean: 0.0508091 max: 0.134166
smoothSolver:  Solving for Ux, Initial residual = 0.09649, Final residual = 2.95132e-06, No Iterations 4
smoothSolver:  Solving for Uy, Initial residual = 0.112616, Final residual = 1.64493e-06, No Iterations 5
DICPCG:  Solving for p, Initial residual = 0.0297284, Final residual = 0.00143702, No Iterations 20
time step continuity errors : sum local = 1.19847e-07, global = -1.08849e-19, cumulative = -1.66188e-18
DICPCG:  Solving for p, Initial residual = 0.0109264, Final residual = 4.66966e-07, No Iterations 44
time step continuity errors : sum local = 3.17172e-11, global = 8.56049e-20, cumulative = -1.57627e-18
ExecutionTime = 0.04 s  ClockTime = 0 s

Time = 0.0015

Courant Number mean: 0.0510277 max: 0.135859
smoothSolver:  Solving for Ux, Initial residual = 0.0761129, Final residual = 2.39786e-06, No Iterations 4
smoothSolver:  Solving for Uy, Initial residual = 0.0897366, Final residual = 9.14528e-06, No Iterations 4
DICPCG:  Solving for p, Initial residual = 0.0259396, Final residual = 0.00101537, No Iterations 21
time step continuity errors : sum local = 9.23457e-08, global = -9.0233e-20, cumulative = -1.66651e-18
DICPCG:  Solving for p, Initial residual = 0.00930507, Final residual = 8.5392e-07, No Iterations 43
time step continuity errors : sum local = 5.77753e-11, global = 5.12802e-19, cumulative = -1.1537e-18
ExecutionTime = 0.04 s  ClockTime = 0 s

Time = 0.00175

Courant Number mean: 0.0512428 max: 0.13734
smoothSolver:  Solving for Ux, Initial residual = 0.0621986, Final residual = 2.01015e-06, No Iterations 4
smoothSolver:  Solving for Uy, Initial residual = 0.0743197, Final residual = 7.36289e-06, No Iterations 4
DICPCG:  Solving for p, Initial residual = 0.023045, Final residual = 0.000928789, No Iterations 21
time step continuity errors : sum local = 8.42028e-08, global = 2.00591e-19, cumulative = -9.53114e-19
DICPCG:  Solving for p, Initial residual = 0.00807597, Final residual = 7.37388e-07, No Iterations 43
time step continuity errors : sum local = 4.95834e-11, global = 8.96995e-20, cumulative = -8.63414e-19
ExecutionTime = 0.04 s  ClockTime = 0 s

Time = 0.002

Courant Number mean: 0.0514534 max: 0.138631
smoothSolver:  Solving for Ux, Initial residual = 0.0523753, Final residual = 1.72397e-06, No Iterations 4
smoothSolver:  Solving for Uy, Initial residual = 0.0634027, Final residual = 6.11725e-06, No Iterations 4
DICPCG:  Solving for p, Initial residual = 0.0206284, Final residual = 0.000850159, No Iterations 21
time step continuity errors : sum local = 7.66304e-08, global = 6.61083e-20, cumulative = -7.97306e-19
DICPCG:  Solving for p, Initial residual = 0.00704875, Final residual = 6.37123e-07, No Iterations 43
time step continuity errors : sum local = 4.25036e-11, global = 5.36013e-21, cumulative = -7.91946e-19
ExecutionTime = 0.04 s  ClockTime = 0 s

Time = 0.00225

Courant Number mean: 0.0516589 max: 0.139751
smoothSolver:  Solving for Ux, Initial residual = 0.0450427, Final residual = 1.50484e-06, No Iterations 4
smoothSolver:  Solving for Uy, Initial residual = 0.0553034, Final residual = 5.20489e-06, No Iterations 4
DICPCG:  Solving for p, Initial residual = 0.0187025, Final residual = 0.000778743, No Iterations 21
time step continuity errors : sum local = 6.96099e-08, global = 3.66772e-19, cumulative = -4.25174e-19
DICPCG:  Solving for p, Initial residual = 0.00619827, Final residual = 5.54391e-07, No Iterations 43
time step continuity errors : sum local = 3.66485e-11, global = 1.14995e-19, cumulative = -3.10179e-19
ExecutionTime = 0.04 s  ClockTime = 0 s

Time = 0.0025

Courant Number mean: 0.0518593 max: 0.140722
smoothSolver:  Solving for Ux, Initial residual = 0.0393653, Final residual = 1.33238e-06, No Iterations 4
smoothSolver:  Solving for Uy, Initial residual = 0.0490842, Final residual = 4.51298e-06, No Iterations 4
DICPCG:  Solving for p, Initial residual = 0.0170757, Final residual = 0.00071546, No Iterations 21
time step continuity errors : sum local = 6.33295e-08, global = 1.82823e-19, cumulative = -1.27356e-19
DICPCG:  Solving for p, Initial residual = 0.00549139, Final residual = 4.86321e-07, No Iterations 43
time step continuity errors : sum local = 3.18307e-11, global = -5.47924e-19, cumulative = -6.7528e-19
ExecutionTime = 0.04 s  ClockTime = 0 s

Time = 0.00275

Courant Number mean: 0.0520544 max: 0.141597
smoothSolver:  Solving for Ux, Initial residual = 0.0348427, Final residual = 9.41657e-06, No Iterations 3
smoothSolver:  Solving for Uy, Initial residual = 0.0441739, Final residual = 3.9732e-06, No Iterations 4
DICPCG:  Solving for p, Initial residual = 0.0159097, Final residual = 0.000649927, No Iterations 21
time step continuity errors : sum local = 5.68382e-08, global = 6.65285e-19, cumulative = -9.99538e-21
DICPCG:  Solving for p, Initial residual = 0.00485888, Final residual = 4.23861e-07, No Iterations 43
time step continuity errors : sum local = 2.74468e-11, global = -6.98786e-19, cumulative = -7.08781e-19
ExecutionTime = 0.04 s  ClockTime = 0 s

Time = 0.003

Courant Number mean: 0.0522445 max: 0.142708
smoothSolver:  Solving for Ux, Initial residual = 0.0311208, Final residual = 8.51317e-06, No Iterations 3
smoothSolver:  Solving for Uy, Initial residual = 0.0402048, Final residual = 3.54235e-06, No Iterations 4
DICPCG:  Solving for p, Initial residual = 0.0146778, Final residual = 0.000602507, No Iterations 21
time step continuity errors : sum local = 5.2106e-08, global = 1.7682e-19, cumulative = -5.31961e-19
DICPCG:  Solving for p, Initial residual = 0.0043744, Final residual = 3.77436e-07, No Iterations 43
time step continuity errors : sum local = 2.41789e-11, global = -4.04012e-19, cumulative = -9.35972e-19
ExecutionTime = 0.04 s  ClockTime = 0 s

Time = 0.00325

Courant Number mean: 0.0524296 max: 0.143736
smoothSolver:  Solving for Ux, Initial residual = 0.0280119, Final residual = 7.75121e-06, No Iterations 3
smoothSolver:  Solving for Uy, Initial residual = 0.0369363, Final residual = 3.19207e-06, No Iterations 4
DICPCG:  Solving for p, Initial residual = 0.0136151, Final residual = 0.000560814, No Iterations 21
time step continuity errors : sum local = 4.79498e-08, global = -4.84165e-19, cumulative = -1.42014e-18
DICPCG:  Solving for p, Initial residual = 0.00397141, Final residual = 9.14715e-07, No Iterations 42
time step continuity errors : sum local = 5.79934e-11, global = -2.18061e-19, cumulative = -1.6382e-18
ExecutionTime = 0.05 s  ClockTime = 0 s

Time = 0.0035

Courant Number mean: 0.05261 max: 0.144686
smoothSolver:  Solving for Ux, Initial residual = 0.025398, Final residual = 7.09898e-06, No Iterations 3
smoothSolver:  Solving for Uy, Initial residual = 0.0341998, Final residual = 2.90249e-06, No Iterations 4
DICPCG:  Solving for p, Initial residual = 0.0126887, Final residual = 0.000524482, No Iterations 21
time step continuity errors : sum local = 4.43385e-08, global = -6.26358e-19, cumulative = -2.26456e-18
DICPCG:  Solving for p, Initial residual = 0.00363205, Final residual = 8.27904e-07, No Iterations 42
time step continuity errors : sum local = 5.19233e-11, global = 4.62808e-19, cumulative = -1.80175e-18
ExecutionTime = 0.05 s  ClockTime = 0 s

Time = 0.00375

Courant Number mean: 0.0527858 max: 0.145564
smoothSolver:  Solving for Ux, Initial residual = 0.0232148, Final residual = 6.53544e-06, No Iterations 3
smoothSolver:  Solving for Uy, Initial residual = 0.0318758, Final residual = 2.65972e-06, No Iterations 4
DICPCG:  Solving for p, Initial residual = 0.0119048, Final residual = 0.00049295, No Iterations 21
time step continuity errors : sum local = 4.12005e-08, global = -1.11818e-19, cumulative = -1.91357e-18
DICPCG:  Solving for p, Initial residual = 0.00334288, Final residual = 7.53484e-07, No Iterations 42
time step continuity errors : sum local = 4.67422e-11, global = 1.04577e-18, cumulative = -8.67796e-19
ExecutionTime = 0.05 s  ClockTime = 0 s

Time = 0.004

Courant Number mean: 0.0529572 max: 0.146376
smoothSolver:  Solving for Ux, Initial residual = 0.0213549, Final residual = 6.04395e-06, No Iterations 3
smoothSolver:  Solving for Uy, Initial residual = 0.0298782, Final residual = 2.45372e-06, No Iterations 4
DICPCG:  Solving for p, Initial residual = 0.0114338, Final residual = 0.000465296, No Iterations 21
time step continuity errors : sum local = 3.84527e-08, global = -2.32438e-20, cumulative = -8.9104e-19
DICPCG:  Solving for p, Initial residual = 0.0030948, Final residual = 6.89426e-07, No Iterations 42
time step continuity errors : sum local = 4.23018e-11, global = 8.00363e-19, cumulative = -9.06765e-20
ExecutionTime = 0.05 s  ClockTime = 0 s

Time = 0.00425

Courant Number mean: 0.0531244 max: 0.147126
smoothSolver:  Solving for Ux, Initial residual = 0.0197454, Final residual = 5.61165e-06, No Iterations 3
smoothSolver:  Solving for Uy, Initial residual = 0.028142, Final residual = 2.27695e-06, No Iterations 4
DICPCG:  Solving for p, Initial residual = 0.0110337, Final residual = 0.000440958, No Iterations 21
time step continuity errors : sum local = 3.60372e-08, global = -1.43152e-19, cumulative = -2.33828e-19
DICPCG:  Solving for p, Initial residual = 0.00288059, Final residual = 6.34154e-07, No Iterations 42
time step continuity errors : sum local = 3.84862e-11, global = 4.69987e-19, cumulative = 2.36159e-19
ExecutionTime = 0.05 s  ClockTime = 0 s

Time = 0.0045

Courant Number mean: 0.0532876 max: 0.147819
smoothSolver:  Solving for Ux, Initial residual = 0.0183344, Final residual = 5.22866e-06, No Iterations 3
smoothSolver:  Solving for Uy, Initial residual = 0.0266198, Final residual = 2.12385e-06, No Iterations 4
DICPCG:  Solving for p, Initial residual = 0.010655, Final residual = 0.0004195, No Iterations 21
time step continuity errors : sum local = 3.39077e-08, global = 7.44066e-19, cumulative = 9.80225e-19
DICPCG:  Solving for p, Initial residual = 0.00269479, Final residual = 9.84559e-07, No Iterations 41
time step continuity errors : sum local = 5.90297e-11, global = -7.77384e-20, cumulative = 9.02486e-19
ExecutionTime = 0.05 s  ClockTime = 0 s

Time = 0.00475

Courant Number mean: 0.053447 max: 0.14846
smoothSolver:  Solving for Ux, Initial residual = 0.0170861, Final residual = 4.88708e-06, No Iterations 3
smoothSolver:  Solving for Uy, Initial residual = 0.0252714, Final residual = 1.98991e-06, No Iterations 4
DICPCG:  Solving for p, Initial residual = 0.0103013, Final residual = 0.000400564, No Iterations 21
time step continuity errors : sum local = 3.20257e-08, global = -4.99733e-19, cumulative = 4.02753e-19
DICPCG:  Solving for p, Initial residual = 0.00253321, Final residual = 9.11199e-07, No Iterations 41
time step continuity errors : sum local = 5.40338e-11, global = 9.1147e-19, cumulative = 1.31422e-18
ExecutionTime = 0.05 s  ClockTime = 0 s

Time = 0.005

Courant Number mean: 0.0536026 max: 0.149054
smoothSolver:  Solving for Ux, Initial residual = 0.0159707, Final residual = 4.57993e-06, No Iterations 3
smoothSolver:  Solving for Uy, Initial residual = 0.0240671, Final residual = 1.87182e-06, No Iterations 4
DICPCG:  Solving for p, Initial residual = 0.00997095, Final residual = 0.000383841, No Iterations 21
time step continuity errors : sum local = 3.03588e-08, global = 4.47075e-19, cumulative = 1.7613e-18
DICPCG:  Solving for p, Initial residual = 0.00238993, Final residual = 8.46815e-07, No Iterations 41
time step continuity errors : sum local = 4.96744e-11, global = 3.10788e-19, cumulative = 2.07209e-18
ExecutionTime = 0.05 s  ClockTime = 0 s

Time = 0.00525

Courant Number mean: 0.0537548 max: 0.149603
smoothSolver:  Solving for Ux, Initial residual = 0.014968, Final residual = 4.30252e-06, No Iterations 3
smoothSolver:  Solving for Uy, Initial residual = 0.0229862, Final residual = 1.7671e-06, No Iterations 4
DICPCG:  Solving for p, Initial residual = 0.0096561, Final residual = 0.000481457, No Iterations 20
time step continuity errors : sum local = 3.56742e-08, global = 2.69165e-20, cumulative = 2.099e-18
DICPCG:  Solving for p, Initial residual = 0.00227501, Final residual = 7.9222e-07, No Iterations 41
time step continuity errors : sum local = 4.59779e-11, global = -2.91465e-19, cumulative = 1.80754e-18
ExecutionTime = 0.07 s  ClockTime = 0 s

Time = 0.0055

Courant Number mean: 0.0539035 max: 0.150112
smoothSolver:  Solving for Ux, Initial residual = 0.0140626, Final residual = 4.05098e-06, No Iterations 3
smoothSolver:  Solving for Uy, Initial residual = 0.0220109, Final residual = 1.67372e-06, No Iterations 4
DICPCG:  Solving for p, Initial residual = 0.00936879, Final residual = 0.000462247, No Iterations 20
time step continuity errors : sum local = 3.39281e-08, global = 1.20538e-18, cumulative = 3.01292e-18
DICPCG:  Solving for p, Initial residual = 0.00216834, Final residual = 7.42049e-07, No Iterations 41
time step continuity errors : sum local = 4.26117e-11, global = 6.543e-19, cumulative = 3.66722e-18
ExecutionTime = 0.07 s  ClockTime = 0 s

Time = 0.00575

Courant Number mean: 0.0540489 max: 0.150585
smoothSolver:  Solving for Ux, Initial residual = 0.0132402, Final residual = 3.82252e-06, No Iterations 3
smoothSolver:  Solving for Uy, Initial residual = 0.0211237, Final residual = 1.58972e-06, No Iterations 4
DICPCG:  Solving for p, Initial residual = 0.00908574, Final residual = 0.000444598, No Iterations 20
time step continuity errors : sum local = 3.23292e-08, global = -2.99109e-20, cumulative = 3.63731e-18
DICPCG:  Solving for p, Initial residual = 0.00206371, Final residual = 6.97492e-07, No Iterations 41
time step continuity errors : sum local = 3.96375e-11, global = -3.97526e-19, cumulative = 3.23978e-18
ExecutionTime = 0.07 s  ClockTime = 0 s

Time = 0.006

Courant Number mean: 0.0541912 max: 0.151023
smoothSolver:  Solving for Ux, Initial residual = 0.0124989, Final residual = 3.61412e-06, No Iterations 3
smoothSolver:  Solving for Uy, Initial residual = 0.0203136, Final residual = 1.51393e-06, No Iterations 4
DICPCG:  Solving for p, Initial residual = 0.00881352, Final residual = 0.000428546, No Iterations 20
time step continuity errors : sum local = 3.08839e-08, global = -3.21608e-20, cumulative = 3.20762e-18
DICPCG:  Solving for p, Initial residual = 0.00196849, Final residual = 9.97131e-07, No Iterations 40
time step continuity errors : sum local = 5.61383e-11, global = 1.79995e-19, cumulative = 3.38762e-18
ExecutionTime = 0.07 s  ClockTime = 0 s

Time = 0.00625

Courant Number mean: 0.0543305 max: 0.15154
smoothSolver:  Solving for Ux, Initial residual = 0.0118333, Final residual = 3.42337e-06, No Iterations 3
smoothSolver:  Solving for Uy, Initial residual = 0.019571, Final residual = 1.44524e-06, No Iterations 4
DICPCG:  Solving for p, Initial residual = 0.00854656, Final residual = 0.000413535, No Iterations 20
time step continuity errors : sum local = 2.95681e-08, global = 8.8376e-20, cumulative = 3.47599e-18
DICPCG:  Solving for p, Initial residual = 0.00187772, Final residual = 9.4266e-07, No Iterations 40
time step continuity errors : sum local = 5.26561e-11, global = -7.2557e-19, cumulative = 2.75042e-18
ExecutionTime = 0.07 s  ClockTime = 0 s

Time = 0.0065

Courant Number mean: 0.0544669 max: 0.152098
smoothSolver:  Solving for Ux, Initial residual = 0.011229, Final residual = 3.24796e-06, No Iterations 3
smoothSolver:  Solving for Uy, Initial residual = 0.0188875, Final residual = 1.38272e-06, No Iterations 4
DICPCG:  Solving for p, Initial residual = 0.00828625, Final residual = 0.000399339, No Iterations 20
time step continuity errors : sum local = 2.83646e-08, global = 5.93171e-19, cumulative = 3.3436e-18
DICPCG:  Solving for p, Initial residual = 0.00179489, Final residual = 8.93435e-07, No Iterations 40
time step continuity errors : sum local = 4.95235e-11, global = 2.77949e-19, cumulative = 3.62154e-18
ExecutionTime = 0.07 s  ClockTime = 0 s

Time = 0.00675

Courant Number mean: 0.0546004 max: 0.152629
smoothSolver:  Solving for Ux, Initial residual = 0.0106721, Final residual = 3.08544e-06, No Iterations 3
smoothSolver:  Solving for Uy, Initial residual = 0.0182554, Final residual = 1.32553e-06, No Iterations 4
DICPCG:  Solving for p, Initial residual = 0.00806115, Final residual = 0.000386285, No Iterations 20
time step continuity errors : sum local = 2.72591e-08, global = 6.62572e-20, cumulative = 3.6878e-18
DICPCG:  Solving for p, Initial residual = 0.00171912, Final residual = 8.48749e-07, No Iterations 40
time step continuity errors : sum local = 4.66975e-11, global = 6.15803e-19, cumulative = 4.3036e-18
ExecutionTime = 0.07 s  ClockTime = 0 s

Time = 0.007

Courant Number mean: 0.0547313 max: 0.153134
smoothSolver:  Solving for Ux, Initial residual = 0.0101567, Final residual = 2.93488e-06, No Iterations 3
smoothSolver:  Solving for Uy, Initial residual = 0.0176684, Final residual = 9.67396e-06, No Iterations 3
DICPCG:  Solving for p, Initial residual = 0.00783413, Final residual = 0.00037337, No Iterations 20
time step continuity errors : sum local = 2.61872e-08, global = 6.98389e-19, cumulative = 5.00199e-18
DICPCG:  Solving for p, Initial residual = 0.00162574, Final residual = 7.87831e-07, No Iterations 40
time step continuity errors : sum local = 4.30329e-11, global = 1.29702e-20, cumulative = 5.01496e-18
ExecutionTime = 0.09 s  ClockTime = 0 s

Time = 0.00725

Courant Number mean: 0.0548595 max: 0.153613
smoothSolver:  Solving for Ux, Initial residual = 0.00967838, Final residual = 2.79493e-06, No Iterations 3
smoothSolver:  Solving for Uy, Initial residual = 0.0171226, Final residual = 9.30966e-06, No Iterations 3
DICPCG:  Solving for p, Initial residual = 0.00762563, Final residual = 0.00036277, No Iterations 20
time step continuity errors : sum local = 2.52869e-08, global = -4.59515e-19, cumulative = 4.55545e-18
DICPCG:  Solving for p, Initial residual = 0.00156334, Final residual = 7.52356e-07, No Iterations 40
time step continuity errors : sum local = 4.0806e-11, global = 3.23527e-19, cumulative = 4.87898e-18
ExecutionTime = 0.09 s  ClockTime = 0 s

Time = 0.0075

Courant Number mean: 0.0549852 max: 0.15407
smoothSolver:  Solving for Ux, Initial residual = 0.00923305, Final residual = 2.66499e-06, No Iterations 3
smoothSolver:  Solving for Uy, Initial residual = 0.0166118, Final residual = 8.97188e-06, No Iterations 3
DICPCG:  Solving for p, Initial residual = 0.00742505, Final residual = 0.000352166, No Iterations 20
time step continuity errors : sum local = 2.4398e-08, global = 2.5047e-20, cumulative = 4.90402e-18
DICPCG:  Solving for p, Initial residual = 0.00150418, Final residual = 7.18573e-07, No Iterations 40
time step continuity errors : sum local = 3.87043e-11, global = 9.53078e-20, cumulative = 4.99933e-18
ExecutionTime = 0.09 s  ClockTime = 0 s

Time = 0.00775

Courant Number mean: 0.0551085 max: 0.154504
smoothSolver:  Solving for Ux, Initial residual = 0.0088178, Final residual = 2.54426e-06, No Iterations 3
smoothSolver:  Solving for Uy, Initial residual = 0.016133, Final residual = 8.6585e-06, No Iterations 3
DICPCG:  Solving for p, Initial residual = 0.00723562, Final residual = 0.000342295, No Iterations 20
time step continuity errors : sum local = 2.35752e-08, global = 5.56875e-19, cumulative = 5.5562e-18
DICPCG:  Solving for p, Initial residual = 0.00144905, Final residual = 6.87376e-07, No Iterations 40
time step continuity errors : sum local = 3.6777e-11, global = 4.39101e-19, cumulative = 5.9953e-18
ExecutionTime = 0.09 s  ClockTime = 0 s

Time = 0.008

Courant Number mean: 0.0552294 max: 0.154917
smoothSolver:  Solving for Ux, Initial residual = 0.00842991, Final residual = 2.43199e-06, No Iterations 3
smoothSolver:  Solving for Uy, Initial residual = 0.0156831, Final residual = 8.36691e-06, No Iterations 3
DICPCG:  Solving for p, Initial residual = 0.00705121, Final residual = 0.000333027, No Iterations 20
time step continuity errors : sum local = 2.28062e-08, global = 6.71819e-19, cumulative = 6.66712e-18
DICPCG:  Solving for p, Initial residual = 0.00139757, Final residual = 6.58582e-07, No Iterations 40
time step continuity errors : sum local = 3.50052e-11, global = 1.20259e-18, cumulative = 7.86971e-18
ExecutionTime = 0.09 s  ClockTime = 0 s

Time = 0.00825

Courant Number mean: 0.0553479 max: 0.15531
smoothSolver:  Solving for Ux, Initial residual = 0.00806598, Final residual = 2.32779e-06, No Iterations 3
smoothSolver:  Solving for Uy, Initial residual = 0.0152599, Final residual = 8.09517e-06, No Iterations 3
DICPCG:  Solving for p, Initial residual = 0.00687377, Final residual = 0.000324344, No Iterations 20
time step continuity errors : sum local = 2.20869e-08, global = 1.20702e-19, cumulative = 7.99041e-18
DICPCG:  Solving for p, Initial residual = 0.0013495, Final residual = 6.31886e-07, No Iterations 40
time step continuity errors : sum local = 3.33698e-11, global = 1.05055e-18, cumulative = 9.04097e-18
ExecutionTime = 0.09 s  ClockTime = 0 s

Time = 0.0085

Courant Number mean: 0.0554643 max: 0.155685
smoothSolver:  Solving for Ux, Initial residual = 0.00772604, Final residual = 2.23048e-06, No Iterations 3
smoothSolver:  Solving for Uy, Initial residual = 0.0148605, Final residual = 7.84115e-06, No Iterations 3
DICPCG:  Solving for p, Initial residual = 0.00670179, Final residual = 0.000316174, No Iterations 20
time step continuity errors : sum local = 2.14117e-08, global = 7.46861e-19, cumulative = 9.78783e-18
DICPCG:  Solving for p, Initial residual = 0.00130482, Final residual = 6.0716e-07, No Iterations 40
time step continuity errors : sum local = 3.18604e-11, global = -2.63043e-20, cumulative = 9.76152e-18
ExecutionTime = 0.09 s  ClockTime = 0 s

Time = 0.00875

Courant Number mean: 0.0555785 max: 0.156042
smoothSolver:  Solving for Ux, Initial residual = 0.00740794, Final residual = 2.13883e-06, No Iterations 3
smoothSolver:  Solving for Uy, Initial residual = 0.0144829, Final residual = 7.60316e-06, No Iterations 3
DICPCG:  Solving for p, Initial residual = 0.00653586, Final residual = 0.000308465, No Iterations 20
time step continuity errors : sum local = 2.07764e-08, global = 1.61135e-20, cumulative = 9.77764e-18
DICPCG:  Solving for p, Initial residual = 0.00126293, Final residual = 5.84134e-07, No Iterations 40
time step continuity errors : sum local = 3.04614e-11, global = 4.11837e-19, cumulative = 1.01895e-17
ExecutionTime = 0.09 s  ClockTime = 0 s

Time = 0.009

Courant Number mean: 0.0556907 max: 0.156383
smoothSolver:  Solving for Ux, Initial residual = 0.00711097, Final residual = 2.05229e-06, No Iterations 3
smoothSolver:  Solving for Uy, Initial residual = 0.0141245, Final residual = 7.37931e-06, No Iterations 3
DICPCG:  Solving for p, Initial residual = 0.00637386, Final residual = 0.000301165, No Iterations 20
time step continuity errors : sum local = 2.01768e-08, global = -4.45106e-19, cumulative = 9.74437e-18
DICPCG:  Solving for p, Initial residual = 0.00122373, Final residual = 5.62623e-07, No Iterations 40
time step continuity errors : sum local = 2.916e-11, global = -5.19784e-19, cumulative = 9.22458e-18
ExecutionTime = 0.09 s  ClockTime = 0 s

Time = 0.00925

Courant Number mean: 0.0558008 max: 0.156708
smoothSolver:  Solving for Ux, Initial residual = 0.00683374, Final residual = 1.97048e-06, No Iterations 3
smoothSolver:  Solving for Uy, Initial residual = 0.0137847, Final residual = 7.16872e-06, No Iterations 3
DICPCG:  Solving for p, Initial residual = 0.00621708, Final residual = 0.000294243, No Iterations 20
time step continuity errors : sum local = 1.96103e-08, global = 4.49258e-19, cumulative = 9.67384e-18
DICPCG:  Solving for p, Initial residual = 0.00118692, Final residual = 5.42507e-07, No Iterations 40
time step continuity errors : sum local = 2.79488e-11, global = 1.09903e-18, cumulative = 1.07729e-17
ExecutionTime = 0.1 s  ClockTime = 0 s

Time = 0.0095

Courant Number mean: 0.0559089 max: 0.157018
smoothSolver:  Solving for Ux, Initial residual = 0.00657587, Final residual = 1.89309e-06, No Iterations 3
smoothSolver:  Solving for Uy, Initial residual = 0.0134616, Final residual = 6.97016e-06, No Iterations 3
DICPCG:  Solving for p, Initial residual = 0.00606424, Final residual = 0.000287676, No Iterations 20
time step continuity errors : sum local = 1.90749e-08, global = -5.11199e-21, cumulative = 1.07678e-17
DICPCG:  Solving for p, Initial residual = 0.00115208, Final residual = 5.2362e-07, No Iterations 40
time step continuity errors : sum local = 2.68179e-11, global = 8.38877e-19, cumulative = 1.16066e-17
ExecutionTime = 0.1 s  ClockTime = 0 s

Time = 0.00975

Courant Number mean: 0.0560151 max: 0.157314
smoothSolver:  Solving for Ux, Initial residual = 0.0063327, Final residual = 1.81976e-06, No Iterations 3
smoothSolver:  Solving for Uy, Initial residual = 0.0131535, Final residual = 6.78252e-06, No Iterations 3
DICPCG:  Solving for p, Initial residual = 0.00591532, Final residual = 0.000281436, No Iterations 20
time step continuity errors : sum local = 1.85677e-08, global = 7.67822e-19, cumulative = 1.23745e-17
DICPCG:  Solving for p, Initial residual = 0.00111908, Final residual = 5.05889e-07, No Iterations 40
time step continuity errors : sum local = 2.57605e-11, global = -2.17714e-19, cumulative = 1.21567e-17
ExecutionTime = 0.1 s  ClockTime = 0 s

Time = 0.01

Courant Number mean: 0.0561194 max: 0.157596
smoothSolver:  Solving for Ux, Initial residual = 0.0061033, Final residual = 1.75018e-06, No Iterations 3
smoothSolver:  Solving for Uy, Initial residual = 0.0128597, Final residual = 6.605e-06, No Iterations 3
DICPCG:  Solving for p, Initial residual = 0.00577136, Final residual = 0.000275479, No Iterations 20
time step continuity errors : sum local = 1.80854e-08, global = 2.74624e-19, cumulative = 1.24314e-17
DICPCG:  Solving for p, Initial residual = 0.00108787, Final residual = 4.89193e-07, No Iterations 40
time step continuity errors : sum local = 2.47692e-11, global = 5.15102e-19, cumulative = 1.29465e-17
ExecutionTime = 0.1 s  ClockTime = 0 s

Time = 0.01025

Courant Number mean: 0.056222 max: 0.157867
smoothSolver:  Solving for Ux, Initial residual = 0.00588584, Final residual = 1.68425e-06, No Iterations 3
smoothSolver:  Solving for Uy, Initial residual = 0.0125791, Final residual = 6.43683e-06, No Iterations 3
DICPCG:  Solving for p, Initial residual = 0.00563241, Final residual = 0.000269787, No Iterations 20
time step continuity errors : sum local = 1.76265e-08, global = 1.12786e-18, cumulative = 1.40743e-17
DICPCG:  Solving for p, Initial residual = 0.00105813, Final residual = 4.73405e-07, No Iterations 40
time step continuity errors : sum local = 2.38372e-11, global = 2.76957e-19, cumulative = 1.43513e-17
ExecutionTime = 0.1 s  ClockTime = 0 s

Time = 0.0105

Courant Number mean: 0.0563228 max: 0.158125
smoothSolver:  Solving for Ux, Initial residual = 0.00568038, Final residual = 1.62162e-06, No Iterations 3
smoothSolver:  Solving for Uy, Initial residual = 0.0123106, Final residual = 6.2772e-06, No Iterations 3
DICPCG:  Solving for p, Initial residual = 0.0054972, Final residual = 0.000264335, No Iterations 20
time step continuity errors : sum local = 1.71893e-08, global = 6.43331e-19, cumulative = 1.49946e-17
DICPCG:  Solving for p, Initial residual = 0.00102994, Final residual = 9.87836e-07, No Iterations 39
time step continuity errors : sum local = 4.94506e-11, global = -7.44297e-19, cumulative = 1.42503e-17
ExecutionTime = 0.1 s  ClockTime = 0 s

Time = 0.01075

Courant Number mean: 0.0564218 max: 0.158372
smoothSolver:  Solving for Ux, Initial residual = 0.00548442, Final residual = 1.56197e-06, No Iterations 3
smoothSolver:  Solving for Uy, Initial residual = 0.0120534, Final residual = 6.12548e-06, No Iterations 3
DICPCG:  Solving for p, Initial residual = 0.00536551, Final residual = 0.000259104, No Iterations 20
time step continuity errors : sum local = 1.67723e-08, global = 7.32055e-20, cumulative = 1.43235e-17
DICPCG:  Solving for p, Initial residual = 0.00100308, Final residual = 9.59773e-07, No Iterations 39
time step continuity errors : sum local = 4.77934e-11, global = 1.45905e-18, cumulative = 1.57826e-17
ExecutionTime = 0.1 s  ClockTime = 0 s

Time = 0.011

Courant Number mean: 0.0565192 max: 0.158632
smoothSolver:  Solving for Ux, Initial residual = 0.00529792, Final residual = 1.50513e-06, No Iterations 3
smoothSolver:  Solving for Uy, Initial residual = 0.0118068, Final residual = 5.98093e-06, No Iterations 3
DICPCG:  Solving for p, Initial residual = 0.0052391, Final residual = 0.000254085, No Iterations 20
time step continuity errors : sum local = 1.6374e-08, global = -5.7853e-20, cumulative = 1.57247e-17
DICPCG:  Solving for p, Initial residual = 0.00097741, Final residual = 9.33139e-07, No Iterations 39
time step continuity errors : sum local = 4.62277e-11, global = 1.41183e-19, cumulative = 1.58659e-17
ExecutionTime = 0.1 s  ClockTime = 0 s

Time = 0.01125

Courant Number mean: 0.056615 max: 0.158945
smoothSolver:  Solving for Ux, Initial residual = 0.00512088, Final residual = 1.45112e-06, No Iterations 3
smoothSolver:  Solving for Uy, Initial residual = 0.0115698, Final residual = 5.8431e-06, No Iterations 3
DICPCG:  Solving for p, Initial residual = 0.00511692, Final residual = 0.000249268, No Iterations 20
time step continuity errors : sum local = 1.59933e-08, global = -2.05803e-20, cumulative = 1.58453e-17
DICPCG:  Solving for p, Initial residual = 0.000953143, Final residual = 9.07864e-07, No Iterations 39
time step continuity errors : sum local = 4.47485e-11, global = -8.55636e-20, cumulative = 1.57598e-17
ExecutionTime = 0.12 s  ClockTime = 0 s

Time = 0.0115

Courant Number mean: 0.0567092 max: 0.159248
smoothSolver:  Solving for Ux, Initial residual = 0.00495355, Final residual = 1.39959e-06, No Iterations 3
smoothSolver:  Solving for Uy, Initial residual = 0.0113422, Final residual = 5.71166e-06, No Iterations 3
DICPCG:  Solving for p, Initial residual = 0.00499838, Final residual = 0.000244632, No Iterations 20
time step continuity errors : sum local = 1.5629e-08, global = -9.95198e-19, cumulative = 1.47646e-17
DICPCG:  Solving for p, Initial residual = 0.00093016, Final residual = 8.83739e-07, No Iterations 39
time step continuity errors : sum local = 4.33465e-11, global = -6.58734e-19, cumulative = 1.41058e-17
ExecutionTime = 0.12 s  ClockTime = 0 s

Time = 0.01175

Courant Number mean: 0.0568019 max: 0.15954
smoothSolver:  Solving for Ux, Initial residual = 0.00479351, Final residual = 1.35065e-06, No Iterations 3
smoothSolver:  Solving for Uy, Initial residual = 0.0111233, Final residual = 5.58613e-06, No Iterations 3
DICPCG:  Solving for p, Initial residual = 0.0048833, Final residual = 0.000240165, No Iterations 20
time step continuity errors : sum local = 1.52803e-08, global = -1.13191e-19, cumulative = 1.39926e-17
DICPCG:  Solving for p, Initial residual = 0.00090846, Final residual = 8.60702e-07, No Iterations 39
time step continuity errors : sum local = 4.20157e-11, global = 8.25559e-19, cumulative = 1.48182e-17
ExecutionTime = 0.12 s  ClockTime = 0 s

Time = 0.012

Courant Number mean: 0.056893 max: 0.159822
smoothSolver:  Solving for Ux, Initial residual = 0.00464198, Final residual = 1.30381e-06, No Iterations 3
smoothSolver:  Solving for Uy, Initial residual = 0.0109125, Final residual = 5.46607e-06, No Iterations 3
DICPCG:  Solving for p, Initial residual = 0.00477177, Final residual = 0.00023585, No Iterations 20
time step continuity errors : sum local = 1.49454e-08, global = 1.78817e-18, cumulative = 1.66064e-17
DICPCG:  Solving for p, Initial residual = 0.000887744, Final residual = 8.38729e-07, No Iterations 39
time step continuity errors : sum local = 4.07525e-11, global = 4.33194e-19, cumulative = 1.70396e-17
ExecutionTime = 0.12 s  ClockTime = 0 s

Time = 0.01225

Courant Number mean: 0.0569827 max: 0.160095
smoothSolver:  Solving for Ux, Initial residual = 0.00449801, Final residual = 1.25926e-06, No Iterations 3
smoothSolver:  Solving for Uy, Initial residual = 0.0107089, Final residual = 5.35098e-06, No Iterations 3
DICPCG:  Solving for p, Initial residual = 0.00466376, Final residual = 0.000231679, No Iterations 20
time step continuity errors : sum local = 1.46236e-08, global = 2.56492e-19, cumulative = 1.7296e-17
DICPCG:  Solving for p, Initial residual = 0.000867813, Final residual = 8.17754e-07, No Iterations 39
time step continuity errors : sum local = 3.95529e-11, global = 2.48816e-19, cumulative = 1.75449e-17
ExecutionTime = 0.12 s  ClockTime = 0 s

Time = 0.0125

Courant Number mean: 0.0570709 max: 0.160358
smoothSolver:  Solving for Ux, Initial residual = 0.00436227, Final residual = 1.21658e-06, No Iterations 3
smoothSolver:  Solving for Uy, Initial residual = 0.0105123, Final residual = 5.24061e-06, No Iterations 3
DICPCG:  Solving for p, Initial residual = 0.00455916, Final residual = 0.000227649, No Iterations 20
time step continuity errors : sum local = 1.43143e-08, global = 7.6721e-19, cumulative = 1.83121e-17
DICPCG:  Solving for p, Initial residual = 0.000848773, Final residual = 7.97685e-07, No Iterations 39
time step continuity errors : sum local = 3.84101e-11, global = 7.75167e-19, cumulative = 1.90872e-17
ExecutionTime = 0.12 s  ClockTime = 0 s

Time = 0.01275

Courant Number mean: 0.0571578 max: 0.160613
smoothSolver:  Solving for Ux, Initial residual = 0.00423238, Final residual = 1.17581e-06, No Iterations 3
smoothSolver:  Solving for Uy, Initial residual = 0.0103227, Final residual = 5.13476e-06, No Iterations 3
DICPCG:  Solving for p, Initial residual = 0.00445816, Final residual = 0.000195774, No Iterations 21
time step continuity errors : sum local = 1.25619e-08, global = 1.28357e-18, cumulative = 2.03708e-17
DICPCG:  Solving for p, Initial residual = 0.000829591, Final residual = 7.37381e-07, No Iterations 39
time step continuity errors : sum local = 3.53462e-11, global = -4.61964e-19, cumulative = 1.99088e-17
ExecutionTime = 0.12 s  ClockTime = 0 s

Time = 0.013

Courant Number mean: 0.0572433 max: 0.160859
smoothSolver:  Solving for Ux, Initial residual = 0.00410832, Final residual = 1.13696e-06, No Iterations 3
smoothSolver:  Solving for Uy, Initial residual = 0.0101393, Final residual = 5.03291e-06, No Iterations 3
DICPCG:  Solving for p, Initial residual = 0.00435427, Final residual = 0.000193315, No Iterations 21
time step continuity errors : sum local = 1.23463e-08, global = -7.82678e-20, cumulative = 1.98306e-17
DICPCG:  Solving for p, Initial residual = 0.00081535, Final residual = 7.18219e-07, No Iterations 39
time step continuity errors : sum local = 3.42817e-11, global = 1.2593e-19, cumulative = 1.99565e-17
ExecutionTime = 0.12 s  ClockTime = 0 s

Time = 0.01325

Courant Number mean: 0.0573274 max: 0.161097
smoothSolver:  Solving for Ux, Initial residual = 0.00398948, Final residual = 1.09985e-06, No Iterations 3
smoothSolver:  Solving for Uy, Initial residual = 0.00996185, Final residual = 4.9351e-06, No Iterations 3
DICPCG:  Solving for p, Initial residual = 0.00425907, Final residual = 0.000190795, No Iterations 21
time step continuity errors : sum local = 1.21317e-08, global = 2.00194e-19, cumulative = 2.01567e-17
DICPCG:  Solving for p, Initial residual = 0.000798998, Final residual = 7.01683e-07, No Iterations 39
time step continuity errors : sum local = 3.33549e-11, global = 3.07198e-19, cumulative = 2.04639e-17
ExecutionTime = 0.13 s  ClockTime = 0 s

Time = 0.0135

Courant Number mean: 0.0574103 max: 0.161328
smoothSolver:  Solving for Ux, Initial residual = 0.00387522, Final residual = 9.89619e-06, No Iterations 2
smoothSolver:  Solving for Uy, Initial residual = 0.00979015, Final residual = 4.84101e-06, No Iterations 3
DICPCG:  Solving for p, Initial residual = 0.00467521, Final residual = 0.000233307, No Iterations 18
time step continuity errors : sum local = 1.38321e-08, global = 3.92001e-19, cumulative = 2.08559e-17
DICPCG:  Solving for p, Initial residual = 0.00124342, Final residual = 6.19304e-07, No Iterations 39
time step continuity errors : sum local = 2.95465e-11, global = 1.08227e-18, cumulative = 2.19382e-17
ExecutionTime = 0.13 s  ClockTime = 0 s

Time = 0.01375

Courant Number mean: 0.0574919 max: 0.16155
smoothSolver:  Solving for Ux, Initial residual = 0.00376579, Final residual = 9.58681e-06, No Iterations 2
smoothSolver:  Solving for Uy, Initial residual = 0.00962478, Final residual = 4.75108e-06, No Iterations 3
DICPCG:  Solving for p, Initial residual = 0.00455364, Final residual = 0.000186955, No Iterations 20
time step continuity errors : sum local = 1.1396e-08, global = 7.37382e-19, cumulative = 2.26755e-17
DICPCG:  Solving for p, Initial residual = 0.00117195, Final residual = 9.93197e-07, No Iterations 38
time step continuity errors : sum local = 4.74678e-11, global = 2.00211e-19, cumulative = 2.28758e-17
ExecutionTime = 0.13 s  ClockTime = 0 s

Time = 0.014

Courant Number mean: 0.0575722 max: 0.161766
smoothSolver:  Solving for Ux, Initial residual = 0.00366065, Final residual = 9.2907e-06, No Iterations 2
smoothSolver:  Solving for Uy, Initial residual = 0.0094626, Final residual = 4.66327e-06, No Iterations 3
DICPCG:  Solving for p, Initial residual = 0.0044326, Final residual = 0.000182923, No Iterations 20
time step continuity errors : sum local = 1.11321e-08, global = -3.52098e-19, cumulative = 2.25237e-17
DICPCG:  Solving for p, Initial residual = 0.00113996, Final residual = 9.84623e-07, No Iterations 38
time step continuity errors : sum local = 4.68795e-11, global = 1.74853e-18, cumulative = 2.42722e-17
ExecutionTime = 0.13 s  ClockTime = 0 s

Time = 0.01425

Courant Number mean: 0.0576513 max: 0.161975
smoothSolver:  Solving for Ux, Initial residual = 0.00356061, Final residual = 9.00442e-06, No Iterations 2
smoothSolver:  Solving for Uy, Initial residual = 0.0093057, Final residual = 4.57889e-06, No Iterations 3
DICPCG:  Solving for p, Initial residual = 0.00433759, Final residual = 0.000180265, No Iterations 20
time step continuity errors : sum local = 1.09398e-08, global = 8.74892e-19, cumulative = 2.51471e-17
DICPCG:  Solving for p, Initial residual = 0.00111645, Final residual = 9.71836e-07, No Iterations 38
time step continuity errors : sum local = 4.60984e-11, global = 3.18729e-19, cumulative = 2.54658e-17
ExecutionTime = 0.13 s  ClockTime = 0 s

Time = 0.0145

Courant Number mean: 0.0577292 max: 0.162177
smoothSolver:  Solving for Ux, Initial residual = 0.00346448, Final residual = 8.73e-06, No Iterations 2
smoothSolver:  Solving for Uy, Initial residual = 0.00915307, Final residual = 4.49732e-06, No Iterations 3
DICPCG:  Solving for p, Initial residual = 0.00424489, Final residual = 0.000177663, No Iterations 20
time step continuity errors : sum local = 1.07524e-08, global = 9.74154e-19, cumulative = 2.644e-17
DICPCG:  Solving for p, Initial residual = 0.00109363, Final residual = 9.59039e-07, No Iterations 38
time step continuity errors : sum local = 4.53255e-11, global = 3.96087e-19, cumulative = 2.68361e-17
ExecutionTime = 0.13 s  ClockTime = 0 s

Time = 0.01475

Courant Number mean: 0.057806 max: 0.162373
smoothSolver:  Solving for Ux, Initial residual = 0.00337208, Final residual = 8.46625e-06, No Iterations 2
smoothSolver:  Solving for Uy, Initial residual = 0.00900509, Final residual = 4.41857e-06, No Iterations 3
DICPCG:  Solving for p, Initial residual = 0.00415479, Final residual = 0.000175159, No Iterations 20
time step continuity errors : sum local = 1.05723e-08, global = 1.60126e-19, cumulative = 2.69962e-17
DICPCG:  Solving for p, Initial residual = 0.00107149, Final residual = 9.46294e-07, No Iterations 38
time step continuity errors : sum local = 4.45632e-11, global = 5.26517e-19, cumulative = 2.75227e-17
ExecutionTime = 0.13 s  ClockTime = 0 s

Time = 0.015

Courant Number mean: 0.0578816 max: 0.162562
smoothSolver:  Solving for Ux, Initial residual = 0.00328338, Final residual = 8.21201e-06, No Iterations 2
smoothSolver:  Solving for Uy, Initial residual = 0.00886133, Final residual = 4.34249e-06, No Iterations 3
DICPCG:  Solving for p, Initial residual = 0.00406739, Final residual = 0.000172715, No Iterations 20
time step continuity errors : sum local = 1.03974e-08, global = 1.07408e-18, cumulative = 2.85968e-17
DICPCG:  Solving for p, Initial residual = 0.00104998, Final residual = 9.33643e-07, No Iterations 38
time step continuity errors : sum local = 4.38133e-11, global = 5.41903e-19, cumulative = 2.91387e-17
ExecutionTime = 0.13 s  ClockTime = 0 s

Time = 0.01525

Courant Number mean: 0.0579562 max: 0.162746
smoothSolver:  Solving for Ux, Initial residual = 0.00319891, Final residual = 7.96808e-06, No Iterations 2
smoothSolver:  Solving for Uy, Initial residual = 0.00872152, Final residual = 4.26892e-06, No Iterations 3
DICPCG:  Solving for p, Initial residual = 0.0039825, Final residual = 0.000170357, No Iterations 20
time step continuity errors : sum local = 1.0229e-08, global = 5.4043e-19, cumulative = 2.96791e-17
DICPCG:  Solving for p, Initial residual = 0.00102929, Final residual = 9.21044e-07, No Iterations 38
time step continuity errors : sum local = 4.30741e-11, global = 1.36766e-19, cumulative = 2.98159e-17
ExecutionTime = 0.15 s  ClockTime = 0 s

Time = 0.0155

Courant Number mean: 0.0580296 max: 0.162924
smoothSolver:  Solving for Ux, Initial residual = 0.00311902, Final residual = 7.73315e-06, No Iterations 2
smoothSolver:  Solving for Uy, Initial residual = 0.00858551, Final residual = 4.19767e-06, No Iterations 3
DICPCG:  Solving for p, Initial residual = 0.00390004, Final residual = 0.00016806, No Iterations 20
time step continuity errors : sum local = 1.00659e-08, global = 7.13956e-19, cumulative = 3.05298e-17
DICPCG:  Solving for p, Initial residual = 0.00100914, Final residual = 9.08533e-07, No Iterations 38
time step continuity errors : sum local = 4.23469e-11, global = -8.66786e-19, cumulative = 2.9663e-17
ExecutionTime = 0.15 s  ClockTime = 0 s

Time = 0.01575

Courant Number mean: 0.058102 max: 0.163097
smoothSolver:  Solving for Ux, Initial residual = 0.00304151, Final residual = 7.50605e-06, No Iterations 2
smoothSolver:  Solving for Uy, Initial residual = 0.00845314, Final residual = 4.12869e-06, No Iterations 3
DICPCG:  Solving for p, Initial residual = 0.00382003, Final residual = 0.000165836, No Iterations 20
time step continuity errors : sum local = 9.90831e-09, global = -2.07275e-19, cumulative = 2.94558e-17
DICPCG:  Solving for p, Initial residual = 0.00098952, Final residual = 8.96067e-07, No Iterations 38
time step continuity errors : sum local = 4.16295e-11, global = 6.62208e-19, cumulative = 3.0118e-17
ExecutionTime = 0.15 s  ClockTime = 0 s

Time = 0.016

Courant Number mean: 0.0581733 max: 0.163265
smoothSolver:  Solving for Ux, Initial residual = 0.00296746, Final residual = 7.28875e-06, No Iterations 2
smoothSolver:  Solving for Uy, Initial residual = 0.00832419, Final residual = 4.06185e-06, No Iterations 3
DICPCG:  Solving for p, Initial residual = 0.00374205, Final residual = 0.000163689, No Iterations 20
time step continuity errors : sum local = 9.75648e-09, global = 6.21792e-19, cumulative = 3.07398e-17
DICPCG:  Solving for p, Initial residual = 0.000970687, Final residual = 8.83634e-07, No Iterations 38
time step continuity errors : sum local = 4.09208e-11, global = 9.29883e-19, cumulative = 3.16696e-17
ExecutionTime = 0.15 s  ClockTime = 0 s

Time = 0.01625

Courant Number mean: 0.0582436 max: 0.163427
smoothSolver:  Solving for Ux, Initial residual = 0.002896, Final residual = 7.07936e-06, No Iterations 2
smoothSolver:  Solving for Uy, Initial residual = 0.0081985, Final residual = 3.99705e-06, No Iterations 3
DICPCG:  Solving for p, Initial residual = 0.00366599, Final residual = 0.000161599, No Iterations 20
time step continuity errors : sum local = 9.6093e-09, global = 1.09767e-19, cumulative = 3.17794e-17
DICPCG:  Solving for p, Initial residual = 0.000952588, Final residual = 8.7144e-07, No Iterations 38
time step continuity errors : sum local = 4.02299e-11, global = 7.30698e-19, cumulative = 3.25101e-17
ExecutionTime = 0.15 s  ClockTime = 0 s

Time = 0.0165

Courant Number mean: 0.0583129 max: 0.163585
smoothSolver:  Solving for Ux, Initial residual = 0.00282704, Final residual = 6.87734e-06, No Iterations 2
smoothSolver:  Solving for Uy, Initial residual = 0.00807602, Final residual = 3.93423e-06, No Iterations 3
DICPCG:  Solving for p, Initial residual = 0.00359199, Final residual = 0.000159584, No Iterations 20
time step continuity errors : sum local = 9.46742e-09, global = 2.24497e-20, cumulative = 3.25326e-17
DICPCG:  Solving for p, Initial residual = 0.000934962, Final residual = 8.59371e-07, No Iterations 38
time step continuity errors : sum local = 3.95515e-11, global = 5.52457e-19, cumulative = 3.3085e-17
ExecutionTime = 0.15 s  ClockTime = 0 s

Time = 0.01675

Courant Number mean: 0.0583813 max: 0.163738
smoothSolver:  Solving for Ux, Initial residual = 0.00276073, Final residual = 6.68345e-06, No Iterations 2
smoothSolver:  Solving for Uy, Initial residual = 0.00795676, Final residual = 3.8733e-06, No Iterations 3
DICPCG:  Solving for p, Initial residual = 0.00352002, Final residual = 0.000157623, No Iterations 20
time step continuity errors : sum local = 9.32981e-09, global = -3.38879e-19, cumulative = 3.27461e-17
DICPCG:  Solving for p, Initial residual = 0.000917764, Final residual = 8.47476e-07, No Iterations 38
time step continuity errors : sum local = 3.88867e-11, global = 8.11299e-19, cumulative = 3.35574e-17
ExecutionTime = 0.15 s  ClockTime = 0 s

Time = 0.017

Courant Number mean: 0.0584486 max: 0.163887
smoothSolver:  Solving for Ux, Initial residual = 0.00269687, Final residual = 6.49587e-06, No Iterations 2
smoothSolver:  Solving for Uy, Initial residual = 0.00784039, Final residual = 3.81413e-06, No Iterations 3
DICPCG:  Solving for p, Initial residual = 0.00345041, Final residual = 0.00015573, No Iterations 20
time step continuity errors : sum local = 9.19698e-09, global = 8.79458e-20, cumulative = 3.36454e-17
DICPCG:  Solving for p, Initial residual = 0.000901036, Final residual = 8.35657e-07, No Iterations 38
time step continuity errors : sum local = 3.82311e-11, global = -9.40008e-20, cumulative = 3.35514e-17
ExecutionTime = 0.15 s  ClockTime = 0 s

Time = 0.01725

Courant Number mean: 0.0585151 max: 0.164031
smoothSolver:  Solving for Ux, Initial residual = 0.00263566, Final residual = 6.3146e-06, No Iterations 2
smoothSolver:  Solving for Uy, Initial residual = 0.00772688, Final residual = 3.7567e-06, No Iterations 3
DICPCG:  Solving for p, Initial residual = 0.00338274, Final residual = 0.000153914, No Iterations 20
time step continuity errors : sum local = 9.06918e-09, global = 1.28608e-18, cumulative = 3.48375e-17
DICPCG:  Solving for p, Initial residual = 0.000884756, Final residual = 8.23968e-07, No Iterations 38
time step continuity errors : sum local = 3.75867e-11, global = 5.7451e-19, cumulative = 3.5412e-17
ExecutionTime = 0.15 s  ClockTime = 0 s

Time = 0.0175

Courant Number mean: 0.0585806 max: 0.164172
smoothSolver:  Solving for Ux, Initial residual = 0.00257657, Final residual = 6.14085e-06, No Iterations 2
smoothSolver:  Solving for Uy, Initial residual = 0.00761606, Final residual = 3.7009e-06, No Iterations 3
DICPCG:  Solving for p, Initial residual = 0.00331684, Final residual = 0.000152159, No Iterations 20
time step continuity errors : sum local = 8.9457e-09, global = 1.3809e-19, cumulative = 3.55501e-17
DICPCG:  Solving for p, Initial residual = 0.000868808, Final residual = 8.1234e-07, No Iterations 38
time step continuity errors : sum local = 3.69512e-11, global = 4.98773e-19, cumulative = 3.60488e-17
ExecutionTime = 0.16 s  ClockTime = 0 s

Time = 0.01775

Courant Number mean: 0.0586452 max: 0.164308
smoothSolver:  Solving for Ux, Initial residual = 0.00251926, Final residual = 5.97311e-06, No Iterations 2
smoothSolver:  Solving for Uy, Initial residual = 0.00750782, Final residual = 3.64666e-06, No Iterations 3
DICPCG:  Solving for p, Initial residual = 0.00325308, Final residual = 0.000150455, No Iterations 20
time step continuity errors : sum local = 8.82607e-09, global = 1.07628e-18, cumulative = 3.71251e-17
DICPCG:  Solving for p, Initial residual = 0.000853297, Final residual = 8.00862e-07, No Iterations 38
time step continuity errors : sum local = 3.63279e-11, global = -3.74647e-19, cumulative = 3.67505e-17
ExecutionTime = 0.16 s  ClockTime = 0 s

Time = 0.018

Courant Number mean: 0.0587089 max: 0.164467
smoothSolver:  Solving for Ux, Initial residual = 0.00246459, Final residual = 5.81059e-06, No Iterations 2
smoothSolver:  Solving for Uy, Initial residual = 0.00740219, Final residual = 3.59392e-06, No Iterations 3
DICPCG:  Solving for p, Initial residual = 0.00319119, Final residual = 0.000148807, No Iterations 20
time step continuity errors : sum local = 8.71041e-09, global = 7.27373e-19, cumulative = 3.74778e-17
DICPCG:  Solving for p, Initial residual = 0.000838217, Final residual = 7.89555e-07, No Iterations 38
time step continuity errors : sum local = 3.57176e-11, global = 1.07964e-19, cumulative = 3.75858e-17
ExecutionTime = 0.16 s  ClockTime = 0 s

Time = 0.01825

Courant Number mean: 0.0587717 max: 0.164638
smoothSolver:  Solving for Ux, Initial residual = 0.00241245, Final residual = 5.65508e-06, No Iterations 2
smoothSolver:  Solving for Uy, Initial residual = 0.0072988, Final residual = 3.54253e-06, No Iterations 3
DICPCG:  Solving for p, Initial residual = 0.00313115, Final residual = 0.000147185, No Iterations 20
time step continuity errors : sum local = 8.59726e-09, global = -1.35575e-19, cumulative = 3.74502e-17
DICPCG:  Solving for p, Initial residual = 0.000823554, Final residual = 7.78262e-07, No Iterations 38
time step continuity errors : sum local = 3.51126e-11, global = 1.2929e-18, cumulative = 3.87431e-17
ExecutionTime = 0.16 s  ClockTime = 0 s

Time = 0.0185

Courant Number mean: 0.0588337 max: 0.164805
smoothSolver:  Solving for Ux, Initial residual = 0.00236205, Final residual = 5.50424e-06, No Iterations 2
smoothSolver:  Solving for Uy, Initial residual = 0.00719768, Final residual = 3.4925e-06, No Iterations 3
DICPCG:  Solving for p, Initial residual = 0.00307286, Final residual = 0.000145587, No Iterations 20
time step continuity errors : sum local = 8.48642e-09, global = 1.4367e-18, cumulative = 4.01798e-17
DICPCG:  Solving for p, Initial residual = 0.000809287, Final residual = 7.67243e-07, No Iterations 38
time step continuity errors : sum local = 3.45247e-11, global = 2.11824e-19, cumulative = 4.03917e-17
ExecutionTime = 0.16 s  ClockTime = 0 s

Time = 0.01875

Courant Number mean: 0.0588949 max: 0.164968
smoothSolver:  Solving for Ux, Initial residual = 0.0023136, Final residual = 5.3583e-06, No Iterations 2
smoothSolver:  Solving for Uy, Initial residual = 0.00709871, Final residual = 3.44374e-06, No Iterations 3
DICPCG:  Solving for p, Initial residual = 0.00301633, Final residual = 0.000144039, No Iterations 20
time step continuity errors : sum local = 8.3791e-09, global = 1.4167e-18, cumulative = 4.18084e-17
DICPCG:  Solving for p, Initial residual = 0.00079549, Final residual = 7.56534e-07, No Iterations 38
time step continuity errors : sum local = 3.39551e-11, global = 1.01579e-18, cumulative = 4.28241e-17
ExecutionTime = 0.16 s  ClockTime = 0 s

Time = 0.019

Courant Number mean: 0.0589552 max: 0.165127
smoothSolver:  Solving for Ux, Initial residual = 0.00226645, Final residual = 5.21798e-06, No Iterations 2
smoothSolver:  Solving for Uy, Initial residual = 0.00700204, Final residual = 3.39625e-06, No Iterations 3
DICPCG:  Solving for p, Initial residual = 0.00296189, Final residual = 0.000142582, No Iterations 20
time step continuity errors : sum local = 8.27702e-09, global = 5.12786e-19, cumulative = 4.33369e-17
DICPCG:  Solving for p, Initial residual = 0.000782114, Final residual = 7.46233e-07, No Iterations 38
time step continuity errors : sum local = 3.34081e-11, global = 9.51258e-21, cumulative = 4.33464e-17
ExecutionTime = 0.16 s  ClockTime = 0 s

Time = 0.01925

Courant Number mean: 0.0590147 max: 0.165282
smoothSolver:  Solving for Ux, Initial residual = 0.00222097, Final residual = 5.08162e-06, No Iterations 2
smoothSolver:  Solving for Uy, Initial residual = 0.00690737, Final residual = 3.34993e-06, No Iterations 3
DICPCG:  Solving for p, Initial residual = 0.00290874, Final residual = 0.00014124, No Iterations 20
time step continuity errors : sum local = 8.18113e-09, global = -9.83187e-20, cumulative = 4.32481e-17
DICPCG:  Solving for p, Initial residual = 0.000769054, Final residual = 7.36033e-07, No Iterations 38
time step continuity errors : sum local = 3.28699e-11, global = 8.21357e-19, cumulative = 4.40695e-17
ExecutionTime = 0.16 s  ClockTime = 0 s

Time = 0.0195

Courant Number mean: 0.0590735 max: 0.165433
smoothSolver:  Solving for Ux, Initial residual = 0.00217715, Final residual = 4.95e-06, No Iterations 2
smoothSolver:  Solving for Uy, Initial residual = 0.00681461, Final residual = 3.30474e-06, No Iterations 3
DICPCG:  Solving for p, Initial residual = 0.00285714, Final residual = 0.000139936, No Iterations 20
time step continuity errors : sum local = 8.0881e-09, global = 3.41229e-19, cumulative = 4.44107e-17
DICPCG:  Solving for p, Initial residual = 0.000756285, Final residual = 7.25909e-07, No Iterations 38
time step continuity errors : sum local = 3.23396e-11, global = 1.08486e-18, cumulative = 4.54956e-17
ExecutionTime = 0.18 s  ClockTime = 0 s

Time = 0.01975

Courant Number mean: 0.0591314 max: 0.165581
smoothSolver:  Solving for Ux, Initial residual = 0.00213493, Final residual = 4.82302e-06, No Iterations 2
smoothSolver:  Solving for Uy, Initial residual = 0.00672377, Final residual = 3.26065e-06, No Iterations 3
DICPCG:  Solving for p, Initial residual = 0.00280699, Final residual = 0.000138658, No Iterations 20
time step continuity errors : sum local = 7.99727e-09, global = 9.57958e-19, cumulative = 4.64535e-17
DICPCG:  Solving for p, Initial residual = 0.000743845, Final residual = 7.16062e-07, No Iterations 38
time step continuity errors : sum local = 3.18255e-11, global = 1.09315e-18, cumulative = 4.75467e-17
ExecutionTime = 0.18 s  ClockTime = 0 s

Time = 0.02

Courant Number mean: 0.0591886 max: 0.165725
smoothSolver:  Solving for Ux, Initial residual = 0.00209424, Final residual = 4.6996e-06, No Iterations 2
smoothSolver:  Solving for Uy, Initial residual = 0.00663476, Final residual = 3.21763e-06, No Iterations 3
DICPCG:  Solving for p, Initial residual = 0.00275802, Final residual = 0.00013742, No Iterations 20
time step continuity errors : sum local = 7.90919e-09, global = -3.67103e-19, cumulative = 4.71796e-17
DICPCG:  Solving for p, Initial residual = 0.000731772, Final residual = 7.06401e-07, No Iterations 38
time step continuity errors : sum local = 3.13232e-11, global = 2.61174e-19, cumulative = 4.74408e-17
ExecutionTime = 0.18 s  ClockTime = 0 s

Time = 0.02025

Courant Number mean: 0.0592451 max: 0.165866
smoothSolver:  Solving for Ux, Initial residual = 0.0020549, Final residual = 4.57977e-06, No Iterations 2
smoothSolver:  Solving for Uy, Initial residual = 0.00654752, Final residual = 3.17563e-06, No Iterations 3
DICPCG:  Solving for p, Initial residual = 0.00271078, Final residual = 0.000121276, No Iterations 21
time step continuity errors : sum local = 7.11759e-09, global = 1.11295e-18, cumulative = 4.85537e-17
DICPCG:  Solving for p, Initial residual = 0.000709127, Final residual = 6.75201e-07, No Iterations 38
time step continuity errors : sum local = 2.98606e-11, global = 1.19008e-18, cumulative = 4.97438e-17
ExecutionTime = 0.18 s  ClockTime = 0 s

Time = 0.0205

Courant Number mean: 0.0593008 max: 0.166004
smoothSolver:  Solving for Ux, Initial residual = 0.00201648, Final residual = 4.46443e-06, No Iterations 2
smoothSolver:  Solving for Uy, Initial residual = 0.00646192, Final residual = 3.13456e-06, No Iterations 3
DICPCG:  Solving for p, Initial residual = 0.00266418, Final residual = 0.000120454, No Iterations 21
time step continuity errors : sum local = 7.04904e-09, global = 5.73286e-19, cumulative = 5.03171e-17
DICPCG:  Solving for p, Initial residual = 0.000697052, Final residual = 6.67558e-07, No Iterations 38
time step continuity errors : sum local = 2.94595e-11, global = 1.16727e-18, cumulative = 5.14843e-17
ExecutionTime = 0.18 s  ClockTime = 0 s

Time = 0.02075

Courant Number mean: 0.0593558 max: 0.166138
smoothSolver:  Solving for Ux, Initial residual = 0.00197972, Final residual = 4.35229e-06, No Iterations 2
smoothSolver:  Solving for Uy, Initial residual = 0.00637808, Final residual = 3.0945e-06, No Iterations 3
DICPCG:  Solving for p, Initial residual = 0.0026194, Final residual = 0.000119779, No Iterations 21
time step continuity errors : sum local = 6.99003e-09, global = 4.45867e-19, cumulative = 5.19302e-17
DICPCG:  Solving for p, Initial residual = 0.000686068, Final residual = 6.61784e-07, No Iterations 38
time step continuity errors : sum local = 2.91408e-11, global = 1.97018e-19, cumulative = 5.21272e-17
ExecutionTime = 0.18 s  ClockTime = 0 s

Time = 0.021

Courant Number mean: 0.0594101 max: 0.16627
smoothSolver:  Solving for Ux, Initial residual = 0.00194473, Final residual = 4.24316e-06, No Iterations 2
smoothSolver:  Solving for Uy, Initial residual = 0.0062959, Final residual = 3.05535e-06, No Iterations 3
DICPCG:  Solving for p, Initial residual = 0.00257619, Final residual = 0.000119139, No Iterations 21
time step continuity errors : sum local = 6.93327e-09, global = 5.69745e-19, cumulative = 5.2697e-17
DICPCG:  Solving for p, Initial residual = 0.000675399, Final residual = 6.56075e-07, No Iterations 38
time step continuity errors : sum local = 2.88271e-11, global = 5.52457e-19, cumulative = 5.32494e-17
ExecutionTime = 0.18 s  ClockTime = 0 s

Time = 0.02125

Courant Number mean: 0.0594637 max: 0.166398
smoothSolver:  Solving for Ux, Initial residual = 0.00191059, Final residual = 4.13826e-06, No Iterations 2
smoothSolver:  Solving for Uy, Initial residual = 0.00621527, Final residual = 3.01707e-06, No Iterations 3
DICPCG:  Solving for p, Initial residual = 0.00253415, Final residual = 0.000118542, No Iterations 21
time step continuity errors : sum local = 6.87911e-09, global = 1.23852e-18, cumulative = 5.4488e-17
DICPCG:  Solving for p, Initial residual = 0.000665012, Final residual = 6.50486e-07, No Iterations 38
time step continuity errors : sum local = 2.85209e-11, global = 8.49614e-19, cumulative = 5.53376e-17
ExecutionTime = 0.18 s  ClockTime = 0 s

Time = 0.0215

Courant Number mean: 0.0595166 max: 0.166524
smoothSolver:  Solving for Ux, Initial residual = 0.00187746, Final residual = 4.03642e-06, No Iterations 2
smoothSolver:  Solving for Uy, Initial residual = 0.00613628, Final residual = 2.97966e-06, No Iterations 3
DICPCG:  Solving for p, Initial residual = 0.00249378, Final residual = 0.000117958, No Iterations 21
time step continuity errors : sum local = 6.8262e-09, global = 1.66445e-19, cumulative = 5.5504e-17
DICPCG:  Solving for p, Initial residual = 0.000654855, Final residual = 6.44982e-07, No Iterations 38
time step continuity errors : sum local = 2.82205e-11, global = 8.86258e-19, cumulative = 5.63903e-17
ExecutionTime = 0.2 s  ClockTime = 0 s

Time = 0.02175

Courant Number mean: 0.0595688 max: 0.166647
smoothSolver:  Solving for Ux, Initial residual = 0.00184579, Final residual = 3.93748e-06, No Iterations 2
smoothSolver:  Solving for Uy, Initial residual = 0.00605878, Final residual = 2.94308e-06, No Iterations 3
DICPCG:  Solving for p, Initial residual = 0.00245488, Final residual = 0.000117406, No Iterations 21
time step continuity errors : sum local = 6.77527e-09, global = 7.74737e-20, cumulative = 5.64677e-17
DICPCG:  Solving for p, Initial residual = 0.000644942, Final residual = 9.90885e-07, No Iterations 37
time step continuity errors : sum local = 4.346e-11, global = -6.02403e-19, cumulative = 5.58653e-17
ExecutionTime = 0.2 s  ClockTime = 0 s

Time = 0.022

Courant Number mean: 0.0596204 max: 0.166767
smoothSolver:  Solving for Ux, Initial residual = 0.00181491, Final residual = 3.84231e-06, No Iterations 2
smoothSolver:  Solving for Uy, Initial residual = 0.00598267, Final residual = 2.90727e-06, No Iterations 3
DICPCG:  Solving for p, Initial residual = 0.00241753, Final residual = 0.00011687, No Iterations 21
time step continuity errors : sum local = 6.72568e-09, global = 2.5808e-19, cumulative = 5.61234e-17
DICPCG:  Solving for p, Initial residual = 0.000635397, Final residual = 9.74581e-07, No Iterations 37
time step continuity errors : sum local = 4.26591e-11, global = 1.14751e-18, cumulative = 5.72709e-17
ExecutionTime = 0.2 s  ClockTime = 0 s

Time = 0.02225

Courant Number mean: 0.0596713 max: 0.166885
smoothSolver:  Solving for Ux, Initial residual = 0.00178516, Final residual = 3.7496e-06, No Iterations 2
smoothSolver:  Solving for Uy, Initial residual = 0.00590793, Final residual = 2.87224e-06, No Iterations 3
DICPCG:  Solving for p, Initial residual = 0.00238165, Final residual = 0.00011635, No Iterations 21
time step continuity errors : sum local = 6.67721e-09, global = 2.22677e-19, cumulative = 5.74936e-17
DICPCG:  Solving for p, Initial residual = 0.000626083, Final residual = 9.58725e-07, No Iterations 37
time step continuity errors : sum local = 4.18821e-11, global = 2.09442e-19, cumulative = 5.77031e-17
ExecutionTime = 0.2 s  ClockTime = 0 s

Time = 0.0225

Courant Number mean: 0.0597216 max: 0.167
smoothSolver:  Solving for Ux, Initial residual = 0.00175664, Final residual = 3.65983e-06, No Iterations 2
smoothSolver:  Solving for Uy, Initial residual = 0.00583455, Final residual = 2.83794e-06, No Iterations 3
DICPCG:  Solving for p, Initial residual = 0.00234754, Final residual = 0.000115858, No Iterations 21
time step continuity errors : sum local = 6.6305e-09, global = -4.27603e-19, cumulative = 5.72755e-17
DICPCG:  Solving for p, Initial residual = 0.000617043, Final residual = 9.36816e-07, No Iterations 37
time step continuity errors : sum local = 4.08491e-11, global = 5.43276e-19, cumulative = 5.78187e-17
ExecutionTime = 0.2 s  ClockTime = 0 s

Time = 0.02275

Courant Number mean: 0.0597712 max: 0.167113
smoothSolver:  Solving for Ux, Initial residual = 0.00172901, Final residual = 3.57334e-06, No Iterations 2
smoothSolver:  Solving for Uy, Initial residual = 0.00576246, Final residual = 2.80436e-06, No Iterations 3
DICPCG:  Solving for p, Initial residual = 0.00231486, Final residual = 0.00011538, No Iterations 21
time step continuity errors : sum local = 6.58488e-09, global = 1.22251e-18, cumulative = 5.90412e-17
DICPCG:  Solving for p, Initial residual = 0.000608311, Final residual = 8.98434e-07, No Iterations 37
time step continuity errors : sum local = 3.91084e-11, global = 3.22733e-19, cumulative = 5.9364e-17
ExecutionTime = 0.2 s  ClockTime = 0 s

Time = 0.023

Courant Number mean: 0.0598203 max: 0.167223
smoothSolver:  Solving for Ux, Initial residual = 0.00170218, Final residual = 3.48881e-06, No Iterations 2
smoothSolver:  Solving for Uy, Initial residual = 0.00569155, Final residual = 2.77142e-06, No Iterations 3
DICPCG:  Solving for p, Initial residual = 0.00228412, Final residual = 8.11361e-05, No Iterations 32
time step continuity errors : sum local = 3.46637e-09, global = 5.534e-19, cumulative = 5.99174e-17
DICPCG:  Solving for p, Initial residual = 0.000564653, Final residual = 9.67084e-07, No Iterations 37
time step continuity errors : sum local = 4.19367e-11, global = 1.10409e-18, cumulative = 6.10215e-17
ExecutionTime = 0.2 s  ClockTime = 0 s

Time = 0.02325

Courant Number mean: 0.0598687 max: 0.167331
smoothSolver:  Solving for Ux, Initial residual = 0.00167636, Final residual = 3.40811e-06, No Iterations 2
smoothSolver:  Solving for Uy, Initial residual = 0.0056222, Final residual = 2.73924e-06, No Iterations 3
DICPCG:  Solving for p, Initial residual = 0.00222955, Final residual = 7.9999e-05, No Iterations 32
time step continuity errors : sum local = 3.41253e-09, global = 1.3804e-19, cumulative = 6.11595e-17
DICPCG:  Solving for p, Initial residual = 0.000547277, Final residual = 9.56019e-07, No Iterations 37
time step continuity errors : sum local = 4.13906e-11, global = 3.51899e-19, cumulative = 6.15114e-17
ExecutionTime = 0.2 s  ClockTime = 0 s

Time = 0.0235

Courant Number mean: 0.0599165 max: 0.167437
smoothSolver:  Solving for Ux, Initial residual = 0.00165177, Final residual = 3.32893e-06, No Iterations 2
smoothSolver:  Solving for Uy, Initial residual = 0.00555372, Final residual = 2.70761e-06, No Iterations 3
DICPCG:  Solving for p, Initial residual = 0.00220137, Final residual = 7.93583e-05, No Iterations 32
time step continuity errors : sum local = 3.37954e-09, global = 7.18191e-19, cumulative = 6.22296e-17
DICPCG:  Solving for p, Initial residual = 0.000539935, Final residual = 9.42032e-07, No Iterations 37
time step continuity errors : sum local = 4.07144e-11, global = 1.13572e-18, cumulative = 6.33653e-17
ExecutionTime = 0.21 s  ClockTime = 0 s

Time = 0.02375

Courant Number mean: 0.0599637 max: 0.167541
smoothSolver:  Solving for Ux, Initial residual = 0.00162788, Final residual = 3.25213e-06, No Iterations 2
smoothSolver:  Solving for Uy, Initial residual = 0.00548636, Final residual = 2.6766e-06, No Iterations 3
DICPCG:  Solving for p, Initial residual = 0.00217316, Final residual = 7.86704e-05, No Iterations 32
time step continuity errors : sum local = 3.34503e-09, global = 8.60814e-19, cumulative = 6.42261e-17
DICPCG:  Solving for p, Initial residual = 0.000532419, Final residual = 9.28061e-07, No Iterations 37
time step continuity errors : sum local = 4.00455e-11, global = 1.58352e-18, cumulative = 6.58096e-17
ExecutionTime = 0.21 s  ClockTime = 0 s

Time = 0.024

Courant Number mean: 0.0600103 max: 0.167642
smoothSolver:  Solving for Ux, Initial residual = 0.00160462, Final residual = 3.17792e-06, No Iterations 2
smoothSolver:  Solving for Uy, Initial residual = 0.00542013, Final residual = 2.6462e-06, No Iterations 3
DICPCG:  Solving for p, Initial residual = 0.00214558, Final residual = 7.78829e-05, No Iterations 32
time step continuity errors : sum local = 3.30659e-09, global = 8.47413e-19, cumulative = 6.66571e-17
DICPCG:  Solving for p, Initial residual = 0.000524769, Final residual = 9.14587e-07, No Iterations 37
time step continuity errors : sum local = 3.9401e-11, global = 7.0355e-19, cumulative = 6.73606e-17
ExecutionTime = 0.21 s  ClockTime = 0 s

Time = 0.02425

Courant Number mean: 0.0600564 max: 0.167742
smoothSolver:  Solving for Ux, Initial residual = 0.00158243, Final residual = 3.10552e-06, No Iterations 2
smoothSolver:  Solving for Uy, Initial residual = 0.00535498, Final residual = 2.61637e-06, No Iterations 3
DICPCG:  Solving for p, Initial residual = 0.00211862, Final residual = 7.70761e-05, No Iterations 32
time step continuity errors : sum local = 3.26758e-09, global = 1.31924e-18, cumulative = 6.86798e-17
DICPCG:  Solving for p, Initial residual = 0.000517068, Final residual = 9.01649e-07, No Iterations 37
time step continuity errors : sum local = 3.87827e-11, global = 6.16018e-19, cumulative = 6.92959e-17
ExecutionTime = 0.21 s  ClockTime = 0 s

Time = 0.0245

Courant Number mean: 0.0601019 max: 0.16784
smoothSolver:  Solving for Ux, Initial residual = 0.00156144, Final residual = 3.03532e-06, No Iterations 2
smoothSolver:  Solving for Uy, Initial residual = 0.00529096, Final residual = 2.58712e-06, No Iterations 3
DICPCG:  Solving for p, Initial residual = 0.00209204, Final residual = 7.62469e-05, No Iterations 32
time step continuity errors : sum local = 3.22827e-09, global = 1.1404e-18, cumulative = 7.04363e-17
DICPCG:  Solving for p, Initial residual = 0.000509286, Final residual = 8.89557e-07, No Iterations 37
time step continuity errors : sum local = 3.82146e-11, global = 1.09403e-19, cumulative = 7.05457e-17
ExecutionTime = 0.21 s  ClockTime = 0 s

Time = 0.02475

Courant Number mean: 0.0601469 max: 0.167935
smoothSolver:  Solving for Ux, Initial residual = 0.001541, Final residual = 2.96726e-06, No Iterations 2
smoothSolver:  Solving for Uy, Initial residual = 0.00522798, Final residual = 2.55842e-06, No Iterations 3
DICPCG:  Solving for p, Initial residual = 0.00206588, Final residual = 7.53709e-05, No Iterations 32
time step continuity errors : sum local = 3.1877e-09, global = 8.01273e-19, cumulative = 7.13469e-17
DICPCG:  Solving for p, Initial residual = 0.000501549, Final residual = 8.78863e-07, No Iterations 37
time step continuity errors : sum local = 3.77088e-11, global = 1.39301e-18, cumulative = 7.27399e-17
ExecutionTime = 0.21 s  ClockTime = 0 s

Time = 0.025

Courant Number mean: 0.0601913 max: 0.168029
smoothSolver:  Solving for Ux, Initial residual = 0.00152129, Final residual = 2.90084e-06, No Iterations 2
smoothSolver:  Solving for Uy, Initial residual = 0.00516602, Final residual = 2.53025e-06, No Iterations 3
DICPCG:  Solving for p, Initial residual = 0.00204028, Final residual = 7.44385e-05, No Iterations 32
time step continuity errors : sum local = 3.14496e-09, global = 7.62313e-19, cumulative = 7.35023e-17
DICPCG:  Solving for p, Initial residual = 0.000493916, Final residual = 8.68697e-07, No Iterations 37
time step continuity errors : sum local = 3.72273e-11, global = 8.36495e-19, cumulative = 7.43388e-17
ExecutionTime = 0.21 s  ClockTime = 0 s

Time = 0.02525

Courant Number mean: 0.0602352 max: 0.168121
smoothSolver:  Solving for Ux, Initial residual = 0.00150249, Final residual = 2.83634e-06, No Iterations 2
smoothSolver:  Solving for Uy, Initial residual = 0.00510502, Final residual = 2.50259e-06, No Iterations 3
DICPCG:  Solving for p, Initial residual = 0.00201511, Final residual = 7.34491e-05, No Iterations 32
time step continuity errors : sum local = 3.10008e-09, global = 7.34255e-19, cumulative = 7.5073e-17
DICPCG:  Solving for p, Initial residual = 0.000486494, Final residual = 8.58679e-07, No Iterations 37
time step continuity errors : sum local = 3.67572e-11, global = 1.73865e-18, cumulative = 7.68117e-17
ExecutionTime = 0.23 s  ClockTime = 0 s

Time = 0.0255

Courant Number mean: 0.0602785 max: 0.168212
smoothSolver:  Solving for Ux, Initial residual = 0.00148458, Final residual = 2.77412e-06, No Iterations 2
smoothSolver:  Solving for Uy, Initial residual = 0.00504501, Final residual = 2.47542e-06, No Iterations 3
DICPCG:  Solving for p, Initial residual = 0.00199045, Final residual = 7.24341e-05, No Iterations 32
time step continuity errors : sum local = 3.05442e-09, global = 5.46411e-19, cumulative = 7.73581e-17
DICPCG:  Solving for p, Initial residual = 0.000479234, Final residual = 8.48871e-07, No Iterations 37
time step continuity errors : sum local = 3.62975e-11, global = -5.84792e-19, cumulative = 7.67733e-17
ExecutionTime = 0.23 s  ClockTime = 0 s

Time = 0.02575

Courant Number mean: 0.0603214 max: 0.1683
smoothSolver:  Solving for Ux, Initial residual = 0.00146729, Final residual = 2.71355e-06, No Iterations 2
smoothSolver:  Solving for Uy, Initial residual = 0.00498599, Final residual = 2.44877e-06, No Iterations 3
DICPCG:  Solving for p, Initial residual = 0.00196631, Final residual = 7.14194e-05, No Iterations 32
time step continuity errors : sum local = 3.0089e-09, global = 5.91294e-19, cumulative = 7.73646e-17
DICPCG:  Solving for p, Initial residual = 0.000472133, Final residual = 8.39552e-07, No Iterations 37
time step continuity errors : sum local = 3.58601e-11, global = 4.98476e-19, cumulative = 7.7863e-17
ExecutionTime = 0.23 s  ClockTime = 0 s

Time = 0.026

Courant Number mean: 0.0603637 max: 0.168387
smoothSolver:  Solving for Ux, Initial residual = 0.00145087, Final residual = 2.65505e-06, No Iterations 2
smoothSolver:  Solving for Uy, Initial residual = 0.00492786, Final residual = 2.42258e-06, No Iterations 3
DICPCG:  Solving for p, Initial residual = 0.00194265, Final residual = 7.04009e-05, No Iterations 32
time step continuity errors : sum local = 2.96346e-09, global = 6.57865e-19, cumulative = 7.85209e-17
DICPCG:  Solving for p, Initial residual = 0.000465187, Final residual = 8.30552e-07, No Iterations 37
time step continuity errors : sum local = 3.54405e-11, global = 5.05912e-19, cumulative = 7.90268e-17
ExecutionTime = 0.23 s  ClockTime = 0 s

Time = 0.02625

Courant Number mean: 0.0604055 max: 0.168473
smoothSolver:  Solving for Ux, Initial residual = 0.00143504, Final residual = 2.59858e-06, No Iterations 2
smoothSolver:  Solving for Uy, Initial residual = 0.00487065, Final residual = 2.39687e-06, No Iterations 3
DICPCG:  Solving for p, Initial residual = 0.00191937, Final residual = 6.93822e-05, No Iterations 32
time step continuity errors : sum local = 2.91827e-09, global = 1.03498e-18, cumulative = 8.00618e-17
DICPCG:  Solving for p, Initial residual = 0.000458479, Final residual = 8.219e-07, No Iterations 37
time step continuity errors : sum local = 3.50368e-11, global = 2.63589e-19, cumulative = 8.03254e-17
ExecutionTime = 0.23 s  ClockTime = 0 s

Time = 0.0265

Courant Number mean: 0.0604468 max: 0.168557
smoothSolver:  Solving for Ux, Initial residual = 0.00142001, Final residual = 2.54353e-06, No Iterations 2
smoothSolver:  Solving for Uy, Initial residual = 0.00481434, Final residual = 2.37161e-06, No Iterations 3
DICPCG:  Solving for p, Initial residual = 0.00189653, Final residual = 6.83521e-05, No Iterations 32
time step continuity errors : sum local = 2.87274e-09, global = 8.84678e-19, cumulative = 8.12101e-17
DICPCG:  Solving for p, Initial residual = 0.00045191, Final residual = 8.13562e-07, No Iterations 37
time step continuity errors : sum local = 3.46485e-11, global = 1.15655e-18, cumulative = 8.23666e-17
ExecutionTime = 0.23 s  ClockTime = 0 s

Time = 0.02675

Courant Number mean: 0.0604876 max: 0.168639
smoothSolver:  Solving for Ux, Initial residual = 0.00140593, Final residual = 2.49064e-06, No Iterations 2
smoothSolver:  Solving for Uy, Initial residual = 0.00475883, Final residual = 2.34676e-06, No Iterations 3
DICPCG:  Solving for p, Initial residual = 0.00187418, Final residual = 6.73167e-05, No Iterations 32
time step continuity errors : sum local = 2.82731e-09, global = 4.38794e-19, cumulative = 8.28054e-17
DICPCG:  Solving for p, Initial residual = 0.000445568, Final residual = 8.05327e-07, No Iterations 37
time step continuity errors : sum local = 3.42696e-11, global = 1.10587e-18, cumulative = 8.39113e-17
ExecutionTime = 0.23 s  ClockTime = 0 s

Time = 0.027

Courant Number mean: 0.060528 max: 0.16872
smoothSolver:  Solving for Ux, Initial residual = 0.00139253, Final residual = 2.43899e-06, No Iterations 2
smoothSolver:  Solving for Uy, Initial residual = 0.00470415, Final residual = 2.32233e-06, No Iterations 3
DICPCG:  Solving for p, Initial residual = 0.00185223, Final residual = 6.62931e-05, No Iterations 32
time step continuity errors : sum local = 2.78268e-09, global = 6.26531e-19, cumulative = 8.45378e-17
DICPCG:  Solving for p, Initial residual = 0.000439386, Final residual = 7.97237e-07, No Iterations 37
time step continuity errors : sum local = 3.38998e-11, global = 1.34998e-18, cumulative = 8.58878e-17
ExecutionTime = 0.23 s  ClockTime = 0 s

Time = 0.02725

Courant Number mean: 0.0605678 max: 0.1688
smoothSolver:  Solving for Ux, Initial residual = 0.00137998, Final residual = 2.38927e-06, No Iterations 2
smoothSolver:  Solving for Uy, Initial residual = 0.00465033, Final residual = 2.29833e-06, No Iterations 3
DICPCG:  Solving for p, Initial residual = 0.00183073, Final residual = 6.52874e-05, No Iterations 32
time step continuity errors : sum local = 2.73897e-09, global = 7.77939e-19, cumulative = 8.66657e-17
[...]
time step continuity errors : sum local = 2.6761e-11, global = 1.01482e-18, cumulative = 7.3267e-15
DICPCG:  Solving for p, Initial residual = 6.44343e-07, Final residual = 6.44343e-07, No Iterations 0
time step continuity errors : sum local = 2.74581e-11, global = 4.55859e-19, cumulative = 7.32716e-15
ExecutionTime = 5.18 s  ClockTime = 5 s

Time = 0.9935

Courant Number mean: 0.0636551 max: 0.178706
smoothSolver:  Solving for Ux, Initial residual = 1.00452e-09, Final residual = 1.00452e-09, No Iterations 0
smoothSolver:  Solving for Uy, Initial residual = 2.05277e-10, Final residual = 2.05277e-10, No Iterations 0
DICPCG:  Solving for p, Initial residual = 1.12141e-06, Final residual = 3.78591e-08, No Iterations 1
time step continuity errors : sum local = 1.67439e-12, global = 1.3202e-18, cumulative = 7.32848e-15
DICPCG:  Solving for p, Initial residual = 3.95915e-08, Final residual = 3.95915e-08, No Iterations 0
time step continuity errors : sum local = 1.75038e-12, global = 1.22641e-18, cumulative = 7.3297e-15
ExecutionTime = 5.18 s  ClockTime = 5 s

Time = 0.99375

Courant Number mean: 0.0636551 max: 0.178706
smoothSolver:  Solving for Ux, Initial residual = 9.59597e-10, Final residual = 9.59597e-10, No Iterations 0
smoothSolver:  Solving for Uy, Initial residual = 2.05609e-10, Final residual = 2.05609e-10, No Iterations 0
DICPCG:  Solving for p, Initial residual = 5.68182e-07, Final residual = 5.68182e-07, No Iterations 0
time step continuity errors : sum local = 2.42849e-11, global = 5.86289e-19, cumulative = 7.33029e-15
DICPCG:  Solving for p, Initial residual = 5.82897e-07, Final residual = 5.82897e-07, No Iterations 0
time step continuity errors : sum local = 2.49117e-11, global = 1.64589e-18, cumulative = 7.33194e-15
ExecutionTime = 5.18 s  ClockTime = 5 s

Time = 0.994

Courant Number mean: 0.0636551 max: 0.178706
smoothSolver:  Solving for Ux, Initial residual = 9.15253e-10, Final residual = 9.15253e-10, No Iterations 0
smoothSolver:  Solving for Uy, Initial residual = 1.86588e-10, Final residual = 1.86588e-10, No Iterations 0
DICPCG:  Solving for p, Initial residual = 1.01471e-06, Final residual = 3.35341e-08, No Iterations 1
time step continuity errors : sum local = 1.47966e-12, global = 1.82641e-19, cumulative = 7.33212e-15
DICPCG:  Solving for p, Initial residual = 3.51449e-08, Final residual = 3.51449e-08, No Iterations 0
time step continuity errors : sum local = 1.54828e-12, global = 1.13233e-18, cumulative = 7.33325e-15
ExecutionTime = 5.18 s  ClockTime = 5 s

Time = 0.99425

Courant Number mean: 0.0636551 max: 0.178706
smoothSolver:  Solving for Ux, Initial residual = 8.59164e-10, Final residual = 8.59164e-10, No Iterations 0
smoothSolver:  Solving for Uy, Initial residual = 1.84308e-10, Final residual = 1.84308e-10, No Iterations 0
DICPCG:  Solving for p, Initial residual = 5.13655e-07, Final residual = 5.13655e-07, No Iterations 0
time step continuity errors : sum local = 2.19016e-11, global = 1.1514e-18, cumulative = 7.3344e-15
DICPCG:  Solving for p, Initial residual = 5.27021e-07, Final residual = 5.27021e-07, No Iterations 0
time step continuity errors : sum local = 2.24693e-11, global = 8.83958e-19, cumulative = 7.33529e-15
ExecutionTime = 5.18 s  ClockTime = 5 s

Time = 0.9945

Courant Number mean: 0.0636551 max: 0.178706
smoothSolver:  Solving for Ux, Initial residual = 8.19907e-10, Final residual = 8.19907e-10, No Iterations 0
smoothSolver:  Solving for Uy, Initial residual = 1.67223e-10, Final residual = 1.67223e-10, No Iterations 0
DICPCG:  Solving for p, Initial residual = 9.17793e-07, Final residual = 9.17793e-07, No Iterations 0
time step continuity errors : sum local = 3.9093e-11, global = 9.80904e-19, cumulative = 7.33627e-15
DICPCG:  Solving for p, Initial residual = 9.29911e-07, Final residual = 9.29911e-07, No Iterations 0
time step continuity errors : sum local = 3.96077e-11, global = 1.6111e-18, cumulative = 7.33788e-15
ExecutionTime = 5.18 s  ClockTime = 5 s

Time = 0.99475

Courant Number mean: 0.0636551 max: 0.178706
smoothSolver:  Solving for Ux, Initial residual = 7.78752e-10, Final residual = 7.78752e-10, No Iterations 0
smoothSolver:  Solving for Uy, Initial residual = 1.5216e-10, Final residual = 1.5216e-10, No Iterations 0
DICPCG:  Solving for p, Initial residual = 1.24777e-06, Final residual = 5.10342e-08, No Iterations 1
time step continuity errors : sum local = 2.24404e-12, global = 7.97518e-19, cumulative = 7.33867e-15
DICPCG:  Solving for p, Initial residual = 5.50186e-08, Final residual = 5.50186e-08, No Iterations 0
time step continuity errors : sum local = 2.417e-12, global = 1.12381e-19, cumulative = 7.33879e-15
ExecutionTime = 5.18 s  ClockTime = 5 s

Time = 0.995

Courant Number mean: 0.0636551 max: 0.178706
smoothSolver:  Solving for Ux, Initial residual = 1.44915e-09, Final residual = 1.44915e-09, No Iterations 0
smoothSolver:  Solving for Uy, Initial residual = 3.0443e-10, Final residual = 3.0443e-10, No Iterations 0
DICPCG:  Solving for p, Initial residual = 8.19752e-07, Final residual = 8.19752e-07, No Iterations 0
time step continuity errors : sum local = 3.50095e-11, global = 6.75095e-19, cumulative = 7.33946e-15
DICPCG:  Solving for p, Initial residual = 8.42105e-07, Final residual = 8.42105e-07, No Iterations 0
time step continuity errors : sum local = 3.59617e-11, global = 1.97021e-18, cumulative = 7.34143e-15
ExecutionTime = 5.18 s  ClockTime = 5 s

Time = 0.99525

Courant Number mean: 0.0636551 max: 0.178706
smoothSolver:  Solving for Ux, Initial residual = 1.381e-09, Final residual = 1.381e-09, No Iterations 0
smoothSolver:  Solving for Uy, Initial residual = 2.76964e-10, Final residual = 2.76964e-10, No Iterations 0
DICPCG:  Solving for p, Initial residual = 1.46652e-06, Final residual = 6.06535e-08, No Iterations 1
time step continuity errors : sum local = 2.62903e-12, global = 1.699e-18, cumulative = 7.34313e-15
DICPCG:  Solving for p, Initial residual = 6.07654e-08, Final residual = 6.07654e-08, No Iterations 0
time step continuity errors : sum local = 2.63379e-12, global = 4.60276e-19, cumulative = 7.34359e-15
ExecutionTime = 5.18 s  ClockTime = 5 s

Time = 0.9955

Courant Number mean: 0.0636551 max: 0.178706
smoothSolver:  Solving for Ux, Initial residual = 1.28162e-09, Final residual = 1.28162e-09, No Iterations 0
smoothSolver:  Solving for Uy, Initial residual = 2.73898e-10, Final residual = 2.73898e-10, No Iterations 0
DICPCG:  Solving for p, Initial residual = 7.56497e-07, Final residual = 7.56497e-07, No Iterations 0
time step continuity errors : sum local = 3.2223e-11, global = 1.08468e-18, cumulative = 7.34468e-15
DICPCG:  Solving for p, Initial residual = 7.76337e-07, Final residual = 7.76337e-07, No Iterations 0
time step continuity errors : sum local = 3.30657e-11, global = 1.32306e-18, cumulative = 7.346e-15
ExecutionTime = 5.18 s  ClockTime = 5 s

Time = 0.99575

Courant Number mean: 0.0636551 max: 0.178706
smoothSolver:  Solving for Ux, Initial residual = 1.22206e-09, Final residual = 1.22206e-09, No Iterations 0
smoothSolver:  Solving for Uy, Initial residual = 2.49142e-10, Final residual = 2.49142e-10, No Iterations 0
DICPCG:  Solving for p, Initial residual = 1.34629e-06, Final residual = 4.864e-08, No Iterations 1
time step continuity errors : sum local = 2.13159e-12, global = 8.50226e-19, cumulative = 7.34685e-15
DICPCG:  Solving for p, Initial residual = 5.18538e-08, Final residual = 5.18538e-08, No Iterations 0
time step continuity errors : sum local = 2.27102e-12, global = 1.53472e-18, cumulative = 7.34838e-15
ExecutionTime = 5.2 s  ClockTime = 5 s

Time = 0.996

Courant Number mean: 0.0636551 max: 0.178706
smoothSolver:  Solving for Ux, Initial residual = 1.16966e-09, Final residual = 1.16966e-09, No Iterations 0
smoothSolver:  Solving for Uy, Initial residual = 2.52168e-10, Final residual = 2.52168e-10, No Iterations 0
DICPCG:  Solving for p, Initial residual = 6.90568e-07, Final residual = 6.90568e-07, No Iterations 0
time step continuity errors : sum local = 2.95009e-11, global = 3.41328e-19, cumulative = 7.34873e-15
DICPCG:  Solving for p, Initial residual = 7.08876e-07, Final residual = 7.08876e-07, No Iterations 0
time step continuity errors : sum local = 3.02808e-11, global = 6.59842e-19, cumulative = 7.34939e-15
ExecutionTime = 5.2 s  ClockTime = 5 s

Time = 0.99625

Courant Number mean: 0.0636551 max: 0.178706
smoothSolver:  Solving for Ux, Initial residual = 1.11479e-09, Final residual = 1.11479e-09, No Iterations 0
smoothSolver:  Solving for Uy, Initial residual = 2.29076e-10, Final residual = 2.29076e-10, No Iterations 0
DICPCG:  Solving for p, Initial residual = 1.23169e-06, Final residual = 4.42669e-08, No Iterations 1
time step continuity errors : sum local = 1.93148e-12, global = 1.54713e-18, cumulative = 7.35093e-15
DICPCG:  Solving for p, Initial residual = 4.56668e-08, Final residual = 4.56668e-08, No Iterations 0
time step continuity errors : sum local = 1.99112e-12, global = 1.17561e-18, cumulative = 7.35211e-15
ExecutionTime = 5.2 s  ClockTime = 5 s

Time = 0.9965

Courant Number mean: 0.0636551 max: 0.178706
smoothSolver:  Solving for Ux, Initial residual = 1.04191e-09, Final residual = 1.04191e-09, No Iterations 0
smoothSolver:  Solving for Uy, Initial residual = 2.24766e-10, Final residual = 2.24766e-10, No Iterations 0
DICPCG:  Solving for p, Initial residual = 6.26458e-07, Final residual = 6.26458e-07, No Iterations 0
time step continuity errors : sum local = 2.6693e-11, global = 9.77231e-19, cumulative = 7.35309e-15
DICPCG:  Solving for p, Initial residual = 6.4275e-07, Final residual = 6.4275e-07, No Iterations 0
time step continuity errors : sum local = 2.73849e-11, global = 1.13415e-18, cumulative = 7.35422e-15
ExecutionTime = 5.2 s  ClockTime = 5 s

Time = 0.99675

Courant Number mean: 0.0636551 max: 0.178706
smoothSolver:  Solving for Ux, Initial residual = 9.94218e-10, Final residual = 9.94218e-10, No Iterations 0
smoothSolver:  Solving for Uy, Initial residual = 2.03969e-10, Final residual = 2.03969e-10, No Iterations 0
DICPCG:  Solving for p, Initial residual = 1.11756e-06, Final residual = 3.88091e-08, No Iterations 1
time step continuity errors : sum local = 1.70923e-12, global = 5.74609e-19, cumulative = 7.35479e-15
DICPCG:  Solving for p, Initial residual = 4.09037e-08, Final residual = 4.09037e-08, No Iterations 0
time step continuity errors : sum local = 1.80059e-12, global = 7.09307e-19, cumulative = 7.3555e-15
ExecutionTime = 5.2 s  ClockTime = 5 s

Time = 0.997

Courant Number mean: 0.0636551 max: 0.178706
smoothSolver:  Solving for Ux, Initial residual = 9.51116e-10, Final residual = 9.51116e-10, No Iterations 0
smoothSolver:  Solving for Uy, Initial residual = 2.04064e-10, Final residual = 2.04064e-10, No Iterations 0
DICPCG:  Solving for p, Initial residual = 5.6681e-07, Final residual = 5.6681e-07, No Iterations 0
time step continuity errors : sum local = 2.42214e-11, global = 8.64073e-19, cumulative = 7.35637e-15
DICPCG:  Solving for p, Initial residual = 5.81475e-07, Final residual = 5.81475e-07, No Iterations 0
time step continuity errors : sum local = 2.48461e-11, global = 9.38039e-19, cumulative = 7.35731e-15
ExecutionTime = 5.2 s  ClockTime = 5 s

Time = 0.99725

Courant Number mean: 0.0636551 max: 0.178706
smoothSolver:  Solving for Ux, Initial residual = 9.06759e-10, Final residual = 9.06759e-10, No Iterations 0
smoothSolver:  Solving for Uy, Initial residual = 1.8515e-10, Final residual = 1.8515e-10, No Iterations 0
DICPCG:  Solving for p, Initial residual = 1.01133e-06, Final residual = 3.50102e-08, No Iterations 1
time step continuity errors : sum local = 1.53653e-12, global = 8.82188e-19, cumulative = 7.35819e-15
DICPCG:  Solving for p, Initial residual = 3.63321e-08, Final residual = 3.63321e-08, No Iterations 0
time step continuity errors : sum local = 1.59285e-12, global = 1.28517e-18, cumulative = 7.35947e-15
ExecutionTime = 5.2 s  ClockTime = 5 s

Time = 0.9975

Courant Number mean: 0.0636551 max: 0.178706
smoothSolver:  Solving for Ux, Initial residual = 8.50413e-10, Final residual = 8.50413e-10, No Iterations 0
smoothSolver:  Solving for Uy, Initial residual = 1.83389e-10, Final residual = 1.83389e-10, No Iterations 0
DICPCG:  Solving for p, Initial residual = 5.12499e-07, Final residual = 5.12499e-07, No Iterations 0
time step continuity errors : sum local = 2.18449e-11, global = 1.63792e-18, cumulative = 7.36111e-15
DICPCG:  Solving for p, Initial residual = 5.25716e-07, Final residual = 5.25716e-07, No Iterations 0
time step continuity errors : sum local = 2.24061e-11, global = 1.08796e-18, cumulative = 7.3622e-15
ExecutionTime = 5.2 s  ClockTime = 5 s

Time = 0.99775

Courant Number mean: 0.0636551 max: 0.178706
smoothSolver:  Solving for Ux, Initial residual = 8.11197e-10, Final residual = 8.11197e-10, No Iterations 0
smoothSolver:  Solving for Uy, Initial residual = 1.66377e-10, Final residual = 1.66377e-10, No Iterations 0
DICPCG:  Solving for p, Initial residual = 9.14564e-07, Final residual = 9.14564e-07, No Iterations 0
time step continuity errors : sum local = 3.89473e-11, global = 5.73402e-20, cumulative = 7.36226e-15
DICPCG:  Solving for p, Initial residual = 9.26566e-07, Final residual = 9.26566e-07, No Iterations 0
time step continuity errors : sum local = 3.9457e-11, global = 2.2635e-19, cumulative = 7.36248e-15
ExecutionTime = 5.2 s  ClockTime = 5 s

Time = 0.998

Courant Number mean: 0.0636551 max: 0.178706
smoothSolver:  Solving for Ux, Initial residual = 7.70078e-10, Final residual = 7.70078e-10, No Iterations 0
smoothSolver:  Solving for Uy, Initial residual = 1.51389e-10, Final residual = 1.51389e-10, No Iterations 0
DICPCG:  Solving for p, Initial residual = 1.24292e-06, Final residual = 5.16469e-08, No Iterations 1
time step continuity errors : sum local = 2.26206e-12, global = 1.17159e-18, cumulative = 7.36365e-15
DICPCG:  Solving for p, Initial residual = 5.57651e-08, Final residual = 5.57651e-08, No Iterations 0
time step continuity errors : sum local = 2.44066e-12, global = 1.53411e-18, cumulative = 7.36519e-15
ExecutionTime = 5.2 s  ClockTime = 5 s

Time = 0.99825

Courant Number mean: 0.0636551 max: 0.178706
smoothSolver:  Solving for Ux, Initial residual = 1.43863e-09, Final residual = 1.43863e-09, No Iterations 0
smoothSolver:  Solving for Uy, Initial residual = 3.02876e-10, Final residual = 3.02876e-10, No Iterations 0
DICPCG:  Solving for p, Initial residual = 8.16691e-07, Final residual = 8.16691e-07, No Iterations 0
time step continuity errors : sum local = 3.48717e-11, global = 1.002e-18, cumulative = 7.36619e-15
DICPCG:  Solving for p, Initial residual = 8.38905e-07, Final residual = 8.38905e-07, No Iterations 0
time step continuity errors : sum local = 3.5818e-11, global = 1.49225e-18, cumulative = 7.36768e-15
ExecutionTime = 5.2 s  ClockTime = 5 s

Time = 0.9985

Courant Number mean: 0.0636551 max: 0.178706
smoothSolver:  Solving for Ux, Initial residual = 1.37069e-09, Final residual = 1.37069e-09, No Iterations 0
smoothSolver:  Solving for Uy, Initial residual = 2.75513e-10, Final residual = 2.75513e-10, No Iterations 0
DICPCG:  Solving for p, Initial residual = 1.4604e-06, Final residual = 6.08444e-08, No Iterations 1
time step continuity errors : sum local = 2.62913e-12, global = 1.4155e-18, cumulative = 7.3691e-15
DICPCG:  Solving for p, Initial residual = 6.06953e-08, Final residual = 6.06953e-08, No Iterations 0
time step continuity errors : sum local = 2.62278e-12, global = 1.24019e-18, cumulative = 7.37034e-15
ExecutionTime = 5.2 s  ClockTime = 5 s

Time = 0.99875

Courant Number mean: 0.0636551 max: 0.178706
smoothSolver:  Solving for Ux, Initial residual = 1.27462e-09, Final residual = 1.27462e-09, No Iterations 0
smoothSolver:  Solving for Uy, Initial residual = 2.72855e-10, Final residual = 2.72855e-10, No Iterations 0
DICPCG:  Solving for p, Initial residual = 7.53072e-07, Final residual = 7.53072e-07, No Iterations 0
time step continuity errors : sum local = 3.20682e-11, global = 8.83479e-19, cumulative = 7.37122e-15
DICPCG:  Solving for p, Initial residual = 7.72758e-07, Final residual = 7.72758e-07, No Iterations 0
time step continuity errors : sum local = 3.29042e-11, global = 1.62384e-18, cumulative = 7.37285e-15
ExecutionTime = 5.2 s  ClockTime = 5 s

Time = 0.999

Courant Number mean: 0.0636551 max: 0.178706
smoothSolver:  Solving for Ux, Initial residual = 1.21547e-09, Final residual = 1.21547e-09, No Iterations 0
smoothSolver:  Solving for Uy, Initial residual = 2.48233e-10, Final residual = 2.48233e-10, No Iterations 0
DICPCG:  Solving for p, Initial residual = 1.34003e-06, Final residual = 4.78958e-08, No Iterations 1
time step continuity errors : sum local = 2.0908e-12, global = 1.22206e-18, cumulative = 7.37407e-15
DICPCG:  Solving for p, Initial residual = 5.10925e-08, Final residual = 5.10925e-08, No Iterations 0
time step continuity errors : sum local = 2.22946e-12, global = 1.39696e-18, cumulative = 7.37546e-15
ExecutionTime = 5.2 s  ClockTime = 5 s

Time = 0.99925

Courant Number mean: 0.0636551 max: 0.178706
smoothSolver:  Solving for Ux, Initial residual = 1.16563e-09, Final residual = 1.16563e-09, No Iterations 0
smoothSolver:  Solving for Uy, Initial residual = 2.5097e-10, Final residual = 2.5097e-10, No Iterations 0
DICPCG:  Solving for p, Initial residual = 6.86973e-07, Final residual = 6.86973e-07, No Iterations 0
time step continuity errors : sum local = 2.93389e-11, global = 7.58475e-19, cumulative = 7.37622e-15
DICPCG:  Solving for p, Initial residual = 7.0517e-07, Final residual = 7.0517e-07, No Iterations 0
time step continuity errors : sum local = 3.01142e-11, global = 8.29728e-19, cumulative = 7.37705e-15
ExecutionTime = 5.2 s  ClockTime = 5 s

Time = 0.9995

Courant Number mean: 0.0636551 max: 0.178706
smoothSolver:  Solving for Ux, Initial residual = 1.11114e-09, Final residual = 1.11114e-09, No Iterations 0
smoothSolver:  Solving for Uy, Initial residual = 2.28e-10, Final residual = 2.28e-10, No Iterations 0
DICPCG:  Solving for p, Initial residual = 1.22563e-06, Final residual = 4.32597e-08, No Iterations 1
time step continuity errors : sum local = 1.87968e-12, global = 6.89356e-19, cumulative = 7.37774e-15
DICPCG:  Solving for p, Initial residual = 4.46533e-08, Final residual = 4.46533e-08, No Iterations 0
time step continuity errors : sum local = 1.93904e-12, global = 1.04301e-18, cumulative = 7.37879e-15
ExecutionTime = 5.21 s  ClockTime = 5 s

Time = 0.99975

Courant Number mean: 0.0636551 max: 0.178706
smoothSolver:  Solving for Ux, Initial residual = 1.04028e-09, Final residual = 1.04028e-09, No Iterations 0
smoothSolver:  Solving for Uy, Initial residual = 2.24001e-10, Final residual = 2.24001e-10, No Iterations 0
DICPCG:  Solving for p, Initial residual = 6.22866e-07, Final residual = 6.22866e-07, No Iterations 0
time step continuity errors : sum local = 2.65309e-11, global = 4.01894e-19, cumulative = 7.37919e-15
DICPCG:  Solving for p, Initial residual = 6.39069e-07, Final residual = 6.39069e-07, No Iterations 0
time step continuity errors : sum local = 2.7219e-11, global = 1.20113e-18, cumulative = 7.38039e-15
ExecutionTime = 5.21 s  ClockTime = 5 s

Time = 1

Courant Number mean: 0.0636551 max: 0.178706
smoothSolver:  Solving for Ux, Initial residual = 9.9276e-10, Final residual = 9.9276e-10, No Iterations 0
smoothSolver:  Solving for Uy, Initial residual = 2.03297e-10, Final residual = 2.03297e-10, No Iterations 0
DICPCG:  Solving for p, Initial residual = 1.11177e-06, Final residual = 3.7644e-08, No Iterations 1
time step continuity errors : sum local = 1.65059e-12, global = 4.90535e-19, cumulative = 7.38088e-15
DICPCG:  Solving for p, Initial residual = 3.95666e-08, Final residual = 3.95666e-08, No Iterations 0
time step continuity errors : sum local = 1.7346e-12, global = 7.78708e-20, cumulative = 7.38096e-15
ExecutionTime = 5.21 s  ClockTime = 5 s

End

